
  OWA STORM WATER MANAGEMENT MODEL - VERSION v5.1.14 (OWA 2022-07-31)
  --------------------------------------------------------------

  WARNING 04: minimum elevation drop used for Conduit WS02004404WS02004405
  WARNING 03: negative offset ignored for Link YS02001904YS02001907
  
  *********************************************************
  NOTE: The summary statistics displayed in this report are
  based on results found at every computational time step,  
  not just on results from each reporting time step.
  *********************************************************
  
  ****************
  Analysis Options
  ****************
  Flow Units ............... LPS
  Process Models:
    Rainfall/Runoff ........ YES
    RDII ................... NO
    Snowmelt ............... NO
    Groundwater ............ NO
    Flow Routing ........... YES
    Ponding Allowed ........ NO
    Water Quality .......... NO
  Infiltration Method ...... HORTON
  Flow Routing Method ...... DYNWAVE
  Surcharge Method ......... EXTRAN
  Starting Date ............ 08/28/2015 08:00:00
  Ending Date .............. 08/28/2015 16:00:00
  Antecedent Dry Days ...... 8.0
  Report Time Step ......... 00:01:00
  Wet Time Step ............ 00:01:00
  Dry Time Step ............ 00:01:00
  Routing Time Step ........ 30.00 sec
  Variable Time Step ....... YES
  Maximum Trials ........... 8
  Number of Threads ........ 4
  Head Tolerance ........... 0.001500 m
  
  
  **************************        Volume         Depth
  Runoff Quantity Continuity     hectare-m            mm
  **************************     ---------       -------
  Total Precipitation ......         3.847        63.505
  Evaporation Loss .........         0.000         0.000
  Infiltration Loss ........         0.242         4.001
  Surface Runoff ...........         3.544        58.509
  Final Storage ............         0.061         1.007
  Continuity Error (%) .....        -0.018
  
  
  **************************        Volume        Volume
  Flow Routing Continuity        hectare-m      10^6 ltr
  **************************     ---------     ---------
  Dry Weather Inflow .......         0.630         6.296
  Wet Weather Inflow .......         3.544        35.444
  Groundwater Inflow .......         0.000         0.000
  RDII Inflow ..............         0.000         0.000
  External Inflow ..........         0.105         1.045
  External Outflow .........         2.506        25.061
  Flooding Loss ............         1.669        16.690
  Evaporation Loss .........         0.000         0.000
  Exfiltration Loss ........         0.000         0.000
  Initial Stored Volume ....         0.303         3.031
  Final Stored Volume ......         0.412         4.117
  Continuity Error (%) .....        -0.114
  
  
  *************************
  Highest Continuity Errors
  *************************
  Node YS02001583 (-5.25%)
  Node YS02001884 (5.11%)
  Node HS02004842 (1.75%)
  
  
  ***************************
  Time-Step Critical Elements
  ***************************
  Link WS02006252WS02006251 (43.47%)
  Link WS02006280WS02006229 (27.76%)
  Link YS02001791YS02001793 (6.04%)
  Link WS02004404WS02004405 (5.63%)
  Link WS02006238WS02006235 (4.82%)
  
  
  ********************************
  Highest Flow Instability Indexes
  ********************************
  Link WS02006113WS02006111 (36)
  Link WS02006111WS02006112 (27)
  Link WS02006256WS02006235 (16)
  Link WS02006238WS02006235 (15)
  Link WS02004404WS02004405 (14)
  
  
  *************************
  Routing Time Step Summary
  *************************
  Minimum Time Step           :     0.01 sec
  Average Time Step           :     1.77 sec
  Maximum Time Step           :     6.46 sec
  Percent in Steady State     :    -0.00
  Average Iterations per Step :     2.88
  Percent Not Converging      :     7.46
  
  
  ***************************
  Subcatchment Runoff Summary
  ***************************
  
  ------------------------------------------------------------------------------------------------------------------------------
                            Total      Total      Total      Total     Imperv       Perv      Total       Total     Peak  Runoff
                           Precip      Runon       Evap      Infil     Runoff     Runoff     Runoff      Runoff   Runoff   Coeff
  Subcatchment                 mm         mm         mm         mm         mm         mm         mm    10^6 ltr      LPS
  ------------------------------------------------------------------------------------------------------------------------------
  sub0                      63.51       0.00       0.00       1.00      57.81       3.45      61.26        0.05    34.78   0.965
  sub1                      63.51       0.00       0.00       1.71      55.27       5.28      60.55        0.40   240.95   0.953
  sub10                     63.51       0.00       0.00       1.20      57.14       3.88      61.02        0.67   408.25   0.961
  sub11                     63.51       0.00       0.00       1.18      57.16       3.90      61.06        0.71   450.25   0.961
  sub12                     63.51       0.00       0.00       1.93      54.07       6.33      60.40        0.53   360.26   0.951
  sub14                     63.51       0.00       0.00       1.35      56.53       4.36      60.90        0.58   359.43   0.959
  sub15                     63.51       0.00       0.00       5.33      43.48      13.73      57.21        0.98   569.52   0.901
  sub16                     63.51       0.00       0.00       5.50      41.64      15.46      57.10        0.60   377.91   0.899
  sub17                     63.51       0.00       0.00       5.36      42.26      14.97      57.22        0.49   306.86   0.901
  sub2                      63.51       0.00       0.00       7.61      39.10      15.88      54.99        0.51   253.78   0.866
  sub22                     63.51       0.00       0.00       8.08      35.42      19.23      54.65        3.45  1912.57   0.861
  sub23                     63.51       0.00       0.00       6.58      39.15      16.92      56.07        2.67  1569.44   0.883
  sub3                      63.51       0.00       0.00       8.27      39.06      15.23      54.29        1.22   552.07   0.855
  sub4                      63.51       0.00       0.00       1.91      55.10       5.07      60.18        1.26   606.27   0.948
  sub5                      63.51       0.00       0.00       1.05      57.76       3.40      61.15        0.69   414.18   0.963
  sub60                     63.51       0.00       0.00       1.82      54.68       5.81      60.49        0.79   510.85   0.952
  sub61                     63.51       0.00       0.00       2.63      51.58       8.16      59.74        1.10   710.19   0.941
  sub62                     63.51       0.00       0.00       1.21      57.14       3.87      61.01        1.67  1003.62   0.961
  sub63                     63.51       0.00       0.00       4.88      44.12      13.54      57.66        1.31   804.09   0.908
  sub64                     63.51       0.00       0.00       2.46      52.77       7.06      59.84        1.44   828.04   0.942
  sub65                     63.51       0.00       0.00       2.13      53.99       6.13      60.12        1.66   927.49   0.947
  sub66                     63.51       0.00       0.00       6.06      44.01      12.36      56.37        2.63  1238.22   0.888
  sub67                     63.51       0.00       0.00       1.16      57.18       3.92      61.10        1.14   765.51   0.962
  sub68                     63.51       0.00       0.00       2.18      53.43       6.71      60.14        1.65  1024.82   0.947
  sub69                     63.51       0.00       0.00       1.96      53.87       7.57      61.44        2.27  1233.28   0.967
  sub7                      63.51       0.00       0.00       1.33      56.55       4.39      60.93        0.21   133.20   0.959
  sub70                     63.51       0.00       0.00       6.54      41.75      15.05      56.80        1.64   697.01   0.894
  sub71                     63.51       0.00       0.00       1.24      57.10       3.84      60.93        1.59   895.46   0.960
  sub72                     63.51       0.00       0.00       1.11      57.65       3.34      60.99        0.84   435.69   0.960
  sub8                      63.51       0.00       0.00       1.35      56.54       4.37      60.91        0.39   244.47   0.959
  sub9                      63.51       0.00       0.00       1.35      56.53       4.37      60.90        0.29   182.70   0.959
  
  
  ******************
  Node Depth Summary
  ******************
  
  ---------------------------------------------------------------------------------
                                 Average  Maximum  Maximum  Time of Max    Reported
                                   Depth    Depth      HGL   Occurrence   Max Depth
  Node                 Type       Meters   Meters   Meters  days hr:min      Meters
  ---------------------------------------------------------------------------------
  HS02004478           JUNCTION     0.19     1.59    10.82     0  02:11        1.59
  HS02004479           JUNCTION     0.25     1.70    10.90     0  02:06        1.67
  HS02004480           JUNCTION     0.22     1.67    10.91     0  02:06        1.63
  HS02004770           JUNCTION     0.23     1.42    11.25     0  02:03        1.42
  HS02004777           JUNCTION     0.26     1.48    11.28     0  02:03        1.48
  HS02004785           JUNCTION     0.15     1.49    11.39     0  02:03        1.34
  HS02004788           JUNCTION     0.13     1.42    11.32     0  02:03        1.34
  HS02004792           JUNCTION     0.17     1.60    11.12     0  02:05        1.60
  HS02004799           JUNCTION     0.27     1.76    10.97     0  02:06        1.76
  HS02004802           JUNCTION     0.29     1.80    10.93     0  02:12        1.80
  HS02004807           JUNCTION     0.26     1.92    11.09     0  02:06        1.92
  HS02004817           JUNCTION     0.56     2.44    11.29     0  02:06        2.37
  HS02004824           JUNCTION     0.14     2.01    11.41     0  02:06        1.93
  HS02004830           JUNCTION     0.15     2.03    11.50     0  02:06        1.90
  HS02004837           JUNCTION     0.12     1.96    11.54     0  02:06        1.85
  HS02004842           JUNCTION     0.41     2.22    11.49     0  02:06        2.12
  HS02004848           JUNCTION     0.10     2.07    11.67     0  02:06        1.79
  HS02004852           JUNCTION     0.11     2.09    11.60     0  02:06        1.86
  HS02004856           JUNCTION     0.17     2.02    11.44     0  02:06        1.91
  HS02004862           JUNCTION     0.12     1.92    11.30     0  02:12        1.90
  HS02004870           JUNCTION     0.11     1.91    11.19     0  02:12        1.89
  HS02004876           JUNCTION     0.16     1.98    11.01     0  02:12        1.97
  HS02004881           JUNCTION     0.10     1.74    10.77     0  02:12        1.73
  HS02004901           JUNCTION     0.24     1.42    11.24     0  02:03        1.42
  WS02001211           JUNCTION     0.62     0.81     5.65     0  02:17        0.81
  WS02001212           JUNCTION     0.36     0.57     5.64     0  02:17        0.57
  WS02001213           JUNCTION     0.58     0.87     5.63     0  02:17        0.87
  WS02003059           JUNCTION     0.65     0.94     5.63     0  02:17        0.94
  WS02003060           JUNCTION     0.38     0.69     5.62     0  02:15        0.69
  WS02003066           JUNCTION     0.23     0.46     6.01     0  02:13        0.46
  WS02003067           JUNCTION     0.55     0.89     6.21     0  02:13        0.89
  WS02003069           JUNCTION     0.42     0.78     5.36     0  02:15        0.78
  WS02003072           JUNCTION     0.48     0.81     5.18     0  02:15        0.81
  WS02003073           JUNCTION     0.29     0.52     4.58     0  02:16        0.52
  WS02004138           JUNCTION     0.13     0.14     7.39     0  00:29        0.14
  WS02004139           JUNCTION     0.56     0.75     5.66     0  02:16        0.75
  WS02004401           JUNCTION     0.74     1.88     7.88     0  02:12        1.87
  WS02004402           JUNCTION     0.76     1.82     7.78     0  02:12        1.81
  WS02004403           JUNCTION     0.77     1.74     7.67     0  02:13        1.73
  WS02004404           JUNCTION     0.83     1.75     7.60     0  02:12        1.75
  WS02004405           JUNCTION     0.82     1.70     7.55     0  02:13        1.69
  WS02004406           JUNCTION     0.82     1.59     7.42     0  02:13        1.57
  WS02004407           JUNCTION     0.26     0.94     7.25     0  02:13        0.94
  WS02004409           JUNCTION     0.53     1.47     7.24     0  02:29        1.47
  WS02004410           JUNCTION     0.54     1.30     7.02     0  02:13        1.30
  WS02004411           JUNCTION     0.54     1.21     6.89     0  02:13        1.21
  WS02004412           JUNCTION     0.55     1.11     6.75     0  02:13        1.11
  WS02004413           JUNCTION     0.69     1.15     6.62     0  02:13        1.15
  WS02006109           JUNCTION     0.93     2.64     9.26     0  02:04        2.64
  WS02006110           JUNCTION     0.88     2.40     8.98     0  02:12        2.39
  WS02006111           JUNCTION     0.38     1.75     8.46     0  02:12        1.75
  WS02006112           JUNCTION     0.95     2.40     8.28     0  02:12        2.38
  WS02006113           JUNCTION     0.47     1.84     8.73     0  02:12        1.82
  WS02006115           JUNCTION     0.66     1.98     8.12     0  02:12        1.97
  WS02006116           JUNCTION     0.73     1.97     8.01     0  02:12        1.96
  WS02006228           JUNCTION     0.97     3.03     9.68     0  02:15        3.02
  WS02006229           JUNCTION     0.97     3.22     9.92     0  02:12        3.21
  WS02006230           JUNCTION     0.92     2.65     9.39     0  02:00        2.65
  WS02006231           JUNCTION     0.66     2.19     9.32     0  02:29        2.19
  WS02006232           JUNCTION     0.77     2.18     9.22     0  01:59        2.18
  WS02006234           JUNCTION     0.66     1.96     9.12     0  01:55        1.96
  WS02006235           JUNCTION     0.68     2.00     9.16     0  02:05        1.93
  WS02006238           JUNCTION     0.70     2.12     9.26     0  02:55        1.93
  WS02006239           JUNCTION     0.65     2.03     9.24     0  02:55        1.98
  WS02006240           JUNCTION     0.61     1.84     9.13     0  02:55        1.80
  WS02006242           JUNCTION     0.66     1.55     8.82     0  01:54        1.55
  WS02006243           JUNCTION     0.55     1.43     8.85     0  02:55        1.36
  WS02006245           JUNCTION     0.54     1.34     8.83     0  02:55        1.27
  WS02006247           JUNCTION     0.55     1.28     8.78     0  02:55        1.22
  WS02006248           JUNCTION     0.50     1.10     8.69     0  01:49        1.10
  WS02006249           JUNCTION     0.53     1.09     8.69     0  01:49        1.09
  WS02006251           JUNCTION     0.61     2.14     9.81     0  02:06        2.13
  WS02006252           JUNCTION     0.43     1.50     9.74     0  00:00        1.50
  WS02006253           JUNCTION     0.68     3.02    10.66     0  02:13        3.01
  WS02006256           JUNCTION     0.93     2.35     9.28     0  00:00        2.35
  WS02006280           JUNCTION     0.24     1.74    10.02     0  02:12        1.73
  WS02006284           JUNCTION     0.50     1.94    10.34     0  02:11        1.93
  WS02006287           JUNCTION     0.24     1.74    10.70     0  02:11        1.73
  WSF200               JUNCTION     0.23     0.52     5.76     0  02:14        0.52
  YS02001580           JUNCTION     0.07     1.05     9.59     0  02:02        0.78
  YS02001583           JUNCTION     0.10     1.02     9.51     0  02:02        0.82
  YS02001586           JUNCTION     0.16     1.13     9.30     0  02:02        1.13
  YS02001590           JUNCTION     0.25     1.40     9.26     0  02:02        1.38
  YS02001593           JUNCTION     0.18     1.34     9.20     0  02:02        1.29
  YS02001596           JUNCTION     0.25     1.68     9.10     0  02:02        1.67
  YS02001600           JUNCTION     0.31     1.87     9.00     0  02:02        1.86
  YS02001601           JUNCTION     0.49     2.06     8.90     0  02:02        2.06
  YS02001602           JUNCTION     0.41     1.87     8.77     0  02:05        1.87
  YS02001605           JUNCTION     0.38     1.78     8.68     0  02:09        1.78
  YS02001607           JUNCTION     0.39     1.68     8.53     0  02:29        1.68
  YS02001610           JUNCTION     0.43     1.68     8.48     0  02:05        1.68
  YS02001613           JUNCTION     0.39     1.67     8.52     0  02:29        1.65
  YS02001616           JUNCTION     0.32     1.61     8.52     0  02:29        1.60
  YS02001619           JUNCTION     0.30     1.61     8.54     0  02:29        1.60
  YS02001622           JUNCTION     0.29     1.58     8.49     0  02:29        1.58
  YS02001625           JUNCTION     0.55     1.78     8.38     0  02:05        1.78
  YS02001629           JUNCTION     0.40     1.85     8.40     0  02:06        1.85
  YS02001633           JUNCTION     0.48     2.00     8.45     0  02:07        1.99
  YS02001641           JUNCTION     0.47     1.94     8.38     0  02:08        1.94
  YS02001644           JUNCTION     0.47     1.92     8.35     0  02:07        1.92
  YS02001647           JUNCTION     0.27     1.76     8.37     0  02:12        1.74
  YS02001649           JUNCTION     0.31     1.98     8.37     0  02:12        1.95
  YS02001652           JUNCTION     0.20     1.85     8.44     0  02:12        1.78
  YS02001655           JUNCTION     0.16     1.66     8.51     0  02:12        1.56
  YS02001658           JUNCTION     0.11     1.52     8.67     0  02:08        1.30
  YS02001661           JUNCTION     0.14     1.23     8.64     0  02:12        1.08
  YS02001664           JUNCTION     0.05     0.52     8.45     0  02:11        0.51
  YS02001745           JUNCTION     0.06     0.80     8.32     0  02:13        0.80
  YS02001748           JUNCTION     0.11     1.41     8.49     0  02:09        1.23
  YS02001751           JUNCTION     0.14     1.46     8.34     0  02:09        1.42
  YS02001754           JUNCTION     0.18     1.69     8.30     0  02:12        1.67
  YS02001757           JUNCTION     0.34     2.03     8.29     0  02:12        2.01
  YS02001759           JUNCTION     0.28     2.00     8.37     0  02:12        1.99
  YS02001762           JUNCTION     0.27     1.98     8.38     0  02:12        1.96
  YS02001765           JUNCTION     0.25     1.94     8.39     0  02:12        1.92
  YS02001767           JUNCTION     0.25     1.92     8.41     0  02:12        1.90
  YS02001770           JUNCTION     0.26     1.93     8.42     0  02:09        1.91
  YS02001774           JUNCTION     0.32     1.98     8.40     0  02:09        1.97
  YS02001779           JUNCTION     0.16     1.68     8.37     0  02:06        1.68
  YS02001783           JUNCTION     0.20     1.27     7.41     0  02:07        1.23
  YS02001784           JUNCTION     0.22     1.15     7.22     0  02:07        1.12
  YS02001786           JUNCTION     0.19     0.90     6.93     0  02:07        0.87
  YS02001788           JUNCTION     0.13     0.62     6.60     0  02:11        0.62
  YS02001790           JUNCTION     0.16     0.72     6.37     0  02:09        0.71
  YS02001791           JUNCTION     0.10     0.44     5.91     0  02:14        0.43
  YS02001793           JUNCTION     0.05     0.29     5.13     0  02:16        0.27
  YS02001882           JUNCTION     0.26     1.65     8.36     0  02:12        1.63
  YS02001884           JUNCTION     0.35     1.74     8.36     0  02:12        1.74
  YS02001887           JUNCTION     0.42     1.82     8.36     0  02:12        1.82
  YS02001890           JUNCTION     0.45     1.81     8.32     0  02:07        1.81
  YS02001895           JUNCTION     0.23     1.57     8.31     0  02:17        1.56
  YS02001898           JUNCTION     0.24     1.57     8.31     0  02:29        1.57
  YS02001901           JUNCTION     0.35     1.68     8.29     0  02:07        1.67
  YS02001904           JUNCTION     0.33     1.64     8.27     0  02:07        1.63
  YS02001907           JUNCTION     0.64     1.96     8.25     0  02:07        1.96
  YS02001910           JUNCTION     0.45     1.98     8.48     0  02:07        1.94
  YS02001915           JUNCTION     0.26     1.93     8.65     0  02:07        1.89
  YS02001918           JUNCTION     0.13     1.81     8.88     0  02:07        1.81
  YS02001920           JUNCTION     0.21     2.10     9.11     0  02:07        1.84
  YS02001923           JUNCTION     0.10     2.02     9.28     0  02:07        1.57
  YS02001926           JUNCTION     0.14     1.90     9.35     0  02:07        1.39
  YS02001929           JUNCTION     0.07     1.78     9.47     0  02:07        1.17
  YS02006553           JUNCTION     0.65     1.98     8.27     0  02:07        1.97
  YS02006556           JUNCTION     0.62     1.96     8.27     0  02:07        1.95
  YS02006558           JUNCTION     0.66     2.01     8.28     0  02:09        2.01
  YS02006561           JUNCTION     0.13     0.96     7.62     0  02:07        0.90
  YS02163301           JUNCTION     0.42     1.91     8.43     0  02:07        1.91
  YS02163601           JUNCTION     0.52     2.02     8.42     0  02:07        2.01
  YS02164001           JUNCTION     0.46     1.94     8.40     0  02:08        1.93
  YSB1154              JUNCTION     0.39     2.10    11.16     0  02:04        2.10
  YSB1171              JUNCTION     0.53     1.95    10.85     0  02:04        1.95
  YSB1174              JUNCTION     0.34     1.95    11.05     0  02:04        1.95
  YSB6556              JUNCTION     0.29     1.80    10.97     0  02:04        1.80
  CC-1                 OUTFALL      0.00     0.00     0.00     0  00:00        0.00
  CC-2                 OUTFALL      0.00     0.00     0.00     0  00:00        0.00
  JK-1                 OUTFALL      0.00     0.00     0.00     0  00:00        0.00
  JK-2                 OUTFALL      0.00     0.00     0.00     0  00:00        0.00
  WSC                  OUTFALL      0.29     0.52     1.19     0  02:17        0.52
  CC-storage           STORAGE      0.96     1.78     7.28     0  02:37        1.78
  JK-storage           STORAGE      1.76     4.23     5.03     0  02:25        4.19
  XR-storage           STORAGE      7.92     9.26     7.26     0  08:00        9.26
  
  
  *******************
  Node Inflow Summary
  *******************
  
  -------------------------------------------------------------------------------------------------
                                  Maximum  Maximum                  Lateral       Total        Flow
                                  Lateral    Total  Time of Max      Inflow      Inflow     Balance
                                   Inflow   Inflow   Occurrence      Volume      Volume       Error
  Node                 Type           LPS      LPS  days hr:min    10^6 ltr    10^6 ltr     Percent
  -------------------------------------------------------------------------------------------------
  HS02004478           JUNCTION      0.00  2304.42     0  02:12           0        8.75      -0.015
  HS02004479           JUNCTION      0.00   386.49     0  02:06           0       0.855       0.063
  HS02004480           JUNCTION      0.00  2074.76     0  02:06           0         6.5       0.033
  HS02004770           JUNCTION   1569.44  1569.44     0  02:14        2.67        2.91       0.101
  HS02004777           JUNCTION      0.03   716.52     0  02:03    0.000864         1.9       0.270
  HS02004785           JUNCTION      0.15   734.52     0  02:03     0.00432         1.9       0.029
  HS02004788           JUNCTION    571.19   843.02     0  02:03        1.03        2.93      -0.015
  HS02004792           JUNCTION   1912.85  2724.82     0  02:14        3.46        6.39       0.006
  HS02004799           JUNCTION    359.43  1722.82     0  02:05        0.58        5.84       0.044
  HS02004802           JUNCTION      0.00  1232.75     0  02:16           0        2.38       0.164
  HS02004807           JUNCTION    450.25  1472.50     0  02:14        0.71        2.46       0.164
  HS02004817           JUNCTION      0.60  1028.29     0  02:14      0.0173        1.81       0.915
  HS02004824           JUNCTION    606.32  1027.23     0  02:14        1.26        1.98       0.014
  HS02004830           JUNCTION      0.15   588.75     0  02:04     0.00432       0.918       0.138
  HS02004837           JUNCTION    414.60   775.06     0  02:04       0.856        1.26       0.051
  HS02004842           JUNCTION      0.00   797.08     0  02:05           0       0.742       1.780
  HS02004848           JUNCTION    552.07  1027.56     0  02:06        1.22        1.79      -0.023
  HS02004852           JUNCTION      0.00   999.84     0  02:06           0        1.64      -0.042
  HS02004856           JUNCTION    182.70  1059.49     0  02:06       0.293        1.94       0.057
  HS02004862           JUNCTION    253.98  1154.35     0  02:06       0.518        2.45       0.027
  HS02004870           JUNCTION    244.47  1218.36     0  02:13       0.389        2.84      -0.014
  HS02004876           JUNCTION    240.95  1456.54     0  02:14       0.403        3.24       0.028
  HS02004881           JUNCTION    133.20  1589.96     0  02:13       0.205        3.45       0.019
  HS02004901           JUNCTION    377.91   639.39     0  02:13       0.598       0.935       0.188
  WS02001211           JUNCTION      7.35   205.60     0  03:00       0.212        5.44       0.611
  WS02001212           JUNCTION      0.00   210.65     0  02:59           0        5.41       0.291
  WS02001213           JUNCTION      0.00   215.20     0  02:59           0        5.39       0.332
  WS02003059           JUNCTION      0.00   218.51     0  02:52           0        5.38       0.596
  WS02003060           JUNCTION     16.53  1510.17     0  02:15       0.476        15.2       0.098
  WS02003066           JUNCTION      0.00  1310.43     0  02:14           0        9.36       0.017
  WS02003067           JUNCTION      0.00  1309.90     0  02:14           0        9.37       0.048
  WS02003069           JUNCTION      0.32  1510.42     0  02:15     0.00922        15.2       0.102
  WS02003072           JUNCTION      0.00  1510.38     0  02:15           0        15.2       0.139
  WS02003073           JUNCTION      1.82  1512.44     0  02:16      0.0524        15.2       0.144
  WS02004138           JUNCTION      0.00   380.00     0  00:00           0        5.25       0.051
  WS02004139           JUNCTION      0.32   190.59     0  00:29     0.00924        5.26       0.509
  WS02004401           JUNCTION      0.00  1310.16     0  02:12           0        9.48       0.118
  WS02004402           JUNCTION      0.00  1310.42     0  02:13           0        9.47       0.119
  WS02004403           JUNCTION      0.00  1310.12     0  02:13           0        9.46       0.115
  WS02004404           JUNCTION      0.16  1310.75     0  02:13     0.00467        9.45       0.099
  WS02004405           JUNCTION      0.04  1311.05     0  02:13      0.0011        9.44       0.137
  WS02004406           JUNCTION      0.00  1311.05     0  02:13           0        9.43       0.236
  WS02004407           JUNCTION      0.00  1310.98     0  02:13           0        9.41       0.021
  WS02004409           JUNCTION      0.00  1309.97     0  02:14           0        9.41       0.040
  WS02004410           JUNCTION      0.00  1310.03     0  02:14           0         9.4       0.059
  WS02004411           JUNCTION      0.00  1310.01     0  02:14           0         9.4       0.071
  WS02004412           JUNCTION      0.00  1309.84     0  02:13           0        9.39       0.090
  WS02004413           JUNCTION      0.00  1309.87     0  02:13           0        9.38       0.157
  WS02006109           JUNCTION      1.23  1289.47     0  02:12      0.0354         9.3       0.119
  WS02006110           JUNCTION      0.00  1125.70     0  02:29           0        9.03       0.100
  WS02006111           JUNCTION      0.00  1124.98     0  02:29           0        9.02       0.006
  WS02006112           JUNCTION    306.86  1309.60     0  02:12       0.491        9.51       0.209
  WS02006113           JUNCTION      0.00  1125.32     0  02:29           0        9.02       0.034
  WS02006115           JUNCTION      0.00  1310.21     0  02:12           0        9.49       0.080
  WS02006116           JUNCTION      0.00  1310.64     0  02:12           0        9.48       0.059
  WS02006228           JUNCTION      0.00  1288.65     0  02:12           0        9.27       0.063
  WS02006229           JUNCTION      0.00  2306.45     0  02:12           0        11.7       0.067
  WS02006230           JUNCTION     10.28  1026.47     0  02:12       0.296        5.37       0.190
  WS02006231           JUNCTION      0.00   455.06     0  02:05           0        4.12      -0.128
  WS02006232           JUNCTION      0.00   454.31     0  02:05           0         4.1       0.187
  WS02006234           JUNCTION      0.00   453.18     0  02:04           0        4.08      -0.104
  WS02006235           JUNCTION      0.00   434.22     0  02:05           0        4.03       0.158
  WS02006238           JUNCTION      0.00   419.31     0  03:42           0           4      -0.093
  WS02006239           JUNCTION      0.00   419.31     0  03:42           0        3.99      -0.068
  WS02006240           JUNCTION      0.00   419.30     0  03:42           0        3.98      -0.005
  WS02006242           JUNCTION      0.00   419.28     0  03:42           0        3.98       0.017
  WS02006243           JUNCTION      0.00   419.37     0  03:41           0        3.62       0.132
  WS02006245           JUNCTION      0.00   419.66     0  03:41           0        3.63       0.256
  WS02006247           JUNCTION      0.00   419.80     0  03:41           0        3.63       0.012
  WS02006248           JUNCTION      0.00   419.77     0  03:41           0        3.84       0.027
  WS02006249           JUNCTION      0.00  1361.04     0  02:13           0        7.04       0.123
  WS02006251           JUNCTION      0.08  1626.00     0  02:13     0.00222        7.16      -0.025
  WS02006252           JUNCTION      0.00   666.09     0  02:13           0         4.2      -0.037
  WS02006253           JUNCTION     34.78  1625.52     0  02:13      0.0496        3.52      -0.014
  WS02006256           JUNCTION      0.00   300.00     0  00:00           0       0.541      -0.068
  WS02006280           JUNCTION      0.00  2304.24     0  02:12           0        8.73       0.013
  WS02006284           JUNCTION      0.10  2303.78     0  02:12     0.00275        8.73      -0.012
  WS02006287           JUNCTION      0.00  2305.69     0  02:11           0        8.73       0.010
  WSF200               JUNCTION      0.00  1310.58     0  02:14           0        9.36       0.009
  YS02001580           JUNCTION      0.00    76.65     0  02:02           0     0.00413       3.858
  YS02001583           JUNCTION      0.00   136.46     0  02:02           0      0.0152      -4.986
  YS02001586           JUNCTION    697.01   697.16     0  02:15        1.64        1.65       0.065
  YS02001590           JUNCTION      0.00   317.96     0  02:10           0        1.32      -0.020
  YS02001593           JUNCTION      0.00   318.00     0  02:29           0        1.32       0.001
  YS02001596           JUNCTION      0.00   318.02     0  02:10           0        1.32      -0.015
  YS02001600           JUNCTION      0.00   318.03     0  02:23           0        1.32       0.020
  YS02001601           JUNCTION   1233.28  1550.89     0  02:14        2.27         3.6       0.021
  YS02001602           JUNCTION      0.00   503.08     0  02:01           0        2.28       0.017
  YS02001605           JUNCTION      0.00   502.42     0  02:01           0        2.16       0.018
  YS02001607           JUNCTION      0.00   501.69     0  02:01           0        2.16       0.090
  YS02001610           JUNCTION      0.00   666.34     0  02:15           0        2.33       0.097
  YS02001613           JUNCTION      0.00   499.86     0  02:02           0        1.88       0.082
  YS02001616           JUNCTION      0.00   501.05     0  02:01           0        1.88       0.030
  YS02001619           JUNCTION   1238.22  1238.22     0  02:15        2.63        4.33      -0.000
  YS02001622           JUNCTION      0.00   925.14     0  02:12           0        4.15       0.001
  YS02001625           JUNCTION      0.00  1306.31     0  02:14           0        4.36       0.215
  YS02001629           JUNCTION      0.00   908.94     0  02:05           0        3.35       0.018
  YS02001633           JUNCTION    927.69  1302.16     0  02:05        1.66        4.79       0.070
  YS02001641           JUNCTION      0.00  1299.51     0  02:05           0        4.58       0.060
  YS02001644           JUNCTION    828.08  1654.32     0  02:05        1.44        6.01       0.055
  YS02001647           JUNCTION      0.00  1657.06     0  02:05           0        5.61       0.000
  YS02001649           JUNCTION      0.00  1815.76     0  02:04           0        6.93       0.001
  YS02001652           JUNCTION      0.00   827.77     0  02:13           0        1.31      -0.077
  YS02001655           JUNCTION      0.15   827.88     0  02:13     0.00443        1.31       0.050
  YS02001658           JUNCTION      0.00   827.35     0  02:13           0        1.31      -0.032
  YS02001661           JUNCTION      0.00   838.18     0  02:12           0        1.31       0.012
  YS02001664           JUNCTION    804.09   804.09     0  02:14        1.31        1.31      -0.007
  YS02001745           JUNCTION    510.86   510.86     0  02:13       0.795       0.795       0.153
  YS02001748           JUNCTION      0.04   518.75     0  02:13      0.0013       0.795      -0.224
  YS02001751           JUNCTION      0.01   519.46     0  02:13    0.000317       0.803       0.121
  YS02001754           JUNCTION      0.26   520.51     0  02:13     0.00749       0.818      -0.195
  YS02001757           JUNCTION      0.00  3052.85     0  02:12           0        10.4       0.011
  YS02001759           JUNCTION    710.23  1259.76     0  02:11         1.1        2.62      -0.011
  YS02001762           JUNCTION      0.00   686.86     0  02:10           0        1.52      -0.007
  YS02001765           JUNCTION      0.00   687.16     0  02:10           0        1.52       0.014
  YS02001767           JUNCTION      0.54   687.61     0  02:10      0.0154        1.52       0.004
  YS02001770           JUNCTION   1003.77  1003.77     0  02:14        1.68        1.72      -0.006
  YS02001774           JUNCTION      0.00   485.63     0  02:14           0       0.229       0.477
  YS02001779           JUNCTION      0.01   485.65     0  02:14    0.000144       0.185      -0.268
  YS02001783           JUNCTION      0.00  1163.62     0  02:12           0        4.07       0.007
  YS02001784           JUNCTION      1.06  1164.50     0  02:12      0.0305         4.1       0.011
  YS02001786           JUNCTION      0.06  1164.70     0  02:12     0.00162         4.1       0.016
  YS02001788           JUNCTION      0.07  1165.20     0  02:12     0.00204         4.1       0.008
  YS02001790           JUNCTION      0.15  1179.23     0  02:11     0.00446         4.1       0.033
  YS02001791           JUNCTION      0.00  1283.90     0  02:09           0         4.1      -0.035
  YS02001793           JUNCTION      0.00  1241.21     0  02:19           0         4.1       0.006
  YS02001882           JUNCTION      0.00    27.80     0  02:04           0      0.0124       4.919
  YS02001884           JUNCTION      0.00    54.66     0  02:04           0      0.0481       5.385
  YS02001887           JUNCTION    765.96   765.96     0  02:13        1.15        1.18       0.380
  YS02001890           JUNCTION      0.00   765.81     0  02:13           0        1.14       0.443
  YS02001895           JUNCTION      0.00   517.04     0  02:15           0        1.07       0.154
  YS02001898           JUNCTION      0.00   517.59     0  02:16           0        1.06       0.026
  YS02001901           JUNCTION      0.00   517.30     0  02:16           0        1.07       0.300
  YS02001904           JUNCTION      0.00   517.63     0  02:15           0        1.07       0.271
  YS02001907           JUNCTION      0.00  1863.47     0  02:14           0        3.58       0.500
  YS02001910           JUNCTION      0.00  1347.66     0  02:14           0        2.52       0.285
  YS02001915           JUNCTION    895.48  1347.08     0  02:14        1.59        2.55       0.064
  YS02001918           JUNCTION      0.00   454.02     0  02:14           0       0.974       0.008
  YS02001920           JUNCTION      2.87   454.27     0  02:14      0.0827       0.961       0.104
  YS02001923           JUNCTION      0.04   451.24     0  02:14     0.00109       0.864       0.008
  YS02001926           JUNCTION      0.05   450.99     0  02:14      0.0015       0.847      -0.051
  YS02001929           JUNCTION    435.69   435.69     0  02:14       0.839       0.839      -0.100
  YS02006553           JUNCTION      0.00   809.75     0  02:29           0        2.43       0.498
  YS02006556           JUNCTION      0.00   802.65     0  02:29           0        2.44       0.327
  YS02006558           JUNCTION   1025.70  1164.89     0  02:12        1.68         4.1       0.092
  YS02006561           JUNCTION      0.00  1163.75     0  02:12           0        4.07      -0.005
  YS02163301           JUNCTION      0.00   908.61     0  02:05           0        3.35       0.045
  YS02163601           JUNCTION      0.11  1301.42     0  02:05     0.00317        4.57       0.108
  YS02164001           JUNCTION      0.00  1300.64     0  02:05           0        4.57       0.046
  YSB1154              JUNCTION    414.18   414.18     0  02:14       0.693       0.694       0.207
  YSB1171              JUNCTION      0.00   993.11     0  02:13           0        1.33       0.475
  YSB1174              JUNCTION    360.26   360.26     0  02:13       0.528       0.528       0.226
  YSB6556              JUNCTION      0.00   414.37     0  02:14           0       0.694       0.142
  CC-1                 OUTFALL       0.00   683.00     0  00:00           0        3.47       0.000
  CC-2                 OUTFALL       0.00   683.00     0  00:00           0        2.82       0.000
  JK-1                 OUTFALL       0.00  1000.00     0  00:00           0        2.53       0.000
  JK-2                 OUTFALL       0.00  1000.00     0  00:00           0        1.08       0.000
  WSC                  OUTFALL       0.00  1513.10     0  02:17           0        15.2       0.000
  CC-storage           STORAGE       0.00  3053.05     0  02:12           0        12.6      -0.060
  JK-storage           STORAGE       0.00  1241.90     0  02:11           0        4.25      -0.148
  XR-storage           STORAGE     200.00   200.00     0  00:00        5.76        6.36       0.001
  
  
  **********************
  Node Surcharge Summary
  **********************
  
  Surcharging occurs when water rises above the top of the highest conduit.
  ---------------------------------------------------------------------
                                               Max. Height   Min. Depth
                                   Hours       Above Crown    Below Rim
  Node                 Type      Surcharged         Meters       Meters
  ---------------------------------------------------------------------
  HS02004478           JUNCTION        0.49          0.669        0.271
  HS02004479           JUNCTION        0.63          0.898        0.152
  HS02004480           JUNCTION        0.67          0.964        0.136
  HS02004770           JUNCTION        0.57          0.720        0.000
  HS02004777           JUNCTION        0.57          0.780        0.000
  HS02004785           JUNCTION        0.52          0.790        0.000
  HS02004788           JUNCTION        0.51          0.720        0.000
  HS02004792           JUNCTION        0.63          0.900        0.000
  HS02004799           JUNCTION        0.76          1.060        0.000
  HS02004802           JUNCTION        0.68          1.094        0.116
  HS02004807           JUNCTION        0.66          1.220        0.000
  HS02004817           JUNCTION        1.27          1.740        0.000
  HS02004824           JUNCTION        0.52          1.310        0.000
  HS02004830           JUNCTION        0.49          1.330        0.000
  HS02004837           JUNCTION        0.45          1.264        0.076
  HS02004842           JUNCTION        0.59          1.520        0.000
  HS02004848           JUNCTION        0.42          1.367        0.003
  HS02004852           JUNCTION        0.44          1.388        0.032
  HS02004856           JUNCTION        0.43          1.245        0.055
  HS02004862           JUNCTION        0.46          1.217        0.083
  HS02004870           JUNCTION        0.48          1.206        0.194
  HS02004876           JUNCTION        0.56          1.285        0.275
  HS02004881           JUNCTION        0.54          1.039        0.411
  HS02004901           JUNCTION        0.57          0.720        0.000
  WS02004401           JUNCTION        1.49          0.884        0.776
  WS02004402           JUNCTION        1.53          0.819        0.921
  WS02004403           JUNCTION        1.54          0.743        1.287
  WS02004404           JUNCTION        1.73          0.753        2.027
  WS02004405           JUNCTION        1.68          0.700        2.100
  WS02004406           JUNCTION        1.65          0.586        1.864
  WS02004409           JUNCTION        1.06          0.472        1.888
  WS02004410           JUNCTION        0.98          0.303        2.237
  WS02004411           JUNCTION        0.89          0.209        2.321
  WS02004412           JUNCTION        0.79          0.107        2.203
  WS02004413           JUNCTION        1.27          0.147        2.053
  WS02006109           JUNCTION        2.46          1.820        0.000
  WS02006110           JUNCTION        2.05          1.489        0.361
  WS02006111           JUNCTION        1.23          0.945        0.925
  WS02006112           JUNCTION        2.25          1.395        0.285
  WS02006113           JUNCTION        1.23          1.040        0.890
  WS02006115           JUNCTION        1.40          0.970        1.280
  WS02006116           JUNCTION        1.41          0.908        1.382
  WS02006228           JUNCTION        2.46          2.200        0.000
  WS02006229           JUNCTION        0.96          1.045        0.025
  WS02006230           JUNCTION        1.79          1.570        0.000
  WS02006231           JUNCTION        2.04          1.483        0.047
  WS02006232           JUNCTION        2.35          1.480        0.000
  WS02006234           JUNCTION        2.27          1.240        0.000
  WS02006235           JUNCTION        2.28          1.290        0.000
  WS02006238           JUNCTION        2.30          1.396        0.034
  WS02006239           JUNCTION        2.26          1.290        0.000
  WS02006240           JUNCTION        2.25          1.131        0.259
  WS02006242           JUNCTION        2.26          0.820        0.000
  WS02006243           JUNCTION        2.22          0.724        0.046
  WS02006245           JUNCTION        2.21          0.635        0.215
  WS02006247           JUNCTION        2.21          0.566        0.194
  WS02006248           JUNCTION        2.20          0.380        0.000
  WS02006249           JUNCTION        2.20          0.390        0.000
  WS02006251           JUNCTION        2.11          1.112        0.068
  WS02006252           JUNCTION        2.26          1.100        0.000
  WS02006253           JUNCTION        2.16          1.980        0.500
  WS02006256           JUNCTION        5.59          2.050        0.000
  WS02006280           JUNCTION        0.78          0.694        0.086
  WS02006284           JUNCTION        0.70          0.664        0.136
  WS02006287           JUNCTION        0.60          0.742        0.148
  YS02001580           JUNCTION        0.61          0.450        0.000
  YS02001583           JUNCTION        0.62          0.378        0.122
  YS02001586           JUNCTION        0.76          0.510        0.000
  YS02001590           JUNCTION        0.84          0.750        0.000
  YS02001593           JUNCTION        0.84          0.721        0.119
  YS02001596           JUNCTION        0.96          0.954        0.116
  YS02001600           JUNCTION        1.14          1.190        0.000
  YS02001601           JUNCTION        1.45          1.440        0.000
  YS02001602           JUNCTION        1.35          1.270        0.000
  YS02001605           JUNCTION        1.30          1.180        0.000
  YS02001607           JUNCTION        0.83          0.680        0.000
  YS02001610           JUNCTION        0.86          0.680        0.000
  YS02001613           JUNCTION        0.83          0.675        0.025
  YS02001616           JUNCTION        0.79          0.610        0.000
  YS02001619           JUNCTION        0.78          0.610        0.000
  YS02001622           JUNCTION        0.77          0.585        0.035
  YS02001625           JUNCTION        0.96          0.780        0.000
  YS02001629           JUNCTION        0.73          0.470        0.000
  YS02001633           JUNCTION        1.00          0.976        0.084
  YS02001641           JUNCTION        0.94          0.944        0.156
  YS02001644           JUNCTION        0.91          0.920        0.000
  YS02001647           JUNCTION        0.70          0.763        0.137
  YS02001649           JUNCTION        0.84          0.985        0.065
  YS02001652           JUNCTION        0.64          0.818        0.312
  YS02001655           JUNCTION        0.48          0.661        0.539
  YS02001658           JUNCTION        0.26          0.525        0.775
  YS02001661           JUNCTION        0.02          0.164        1.226
  YS02001748           JUNCTION        0.19          0.329        0.861
  YS02001751           JUNCTION        0.36          0.463        0.737
  YS02001754           JUNCTION        0.56          0.642        0.508
  YS02001757           JUNCTION        0.91          1.027        0.183
  YS02001759           JUNCTION        0.82          1.003        0.207
  YS02001762           JUNCTION        0.78          0.981        0.169
  YS02001765           JUNCTION        0.73          0.944        0.156
  YS02001767           JUNCTION        0.71          0.924        0.106
  YS02001770           JUNCTION        0.67          0.898        0.022
  YS02001774           JUNCTION        0.77          0.981        0.069
  YS02001779           JUNCTION        0.55          0.680        0.000
  YS02001783           JUNCTION        0.55          0.474        1.126
  YS02001784           JUNCTION        0.52          0.348        1.142
  YS02001786           JUNCTION        0.41          0.095        1.335
  YS02001882           JUNCTION        0.49          0.648        0.182
  YS02001884           JUNCTION        0.50          0.685        0.185
  YS02001887           JUNCTION        0.54          0.772        0.178
  YS02001890           JUNCTION        0.55          0.760        0.000
  YS02001895           JUNCTION        0.48          0.567        0.183
  YS02001898           JUNCTION        0.47          0.543        0.197
  YS02001901           JUNCTION        0.52          0.677        0.193
  YS02001904           JUNCTION        0.51          0.640        0.210
  YS02001907           JUNCTION        0.78          0.950        0.000
  YS02001910           JUNCTION        0.58          0.978        0.122
  YS02001915           JUNCTION        0.49          0.929        0.071
  YS02001918           JUNCTION        0.39          0.810        0.000
  YS02001920           JUNCTION        0.41          1.104        0.036
  YS02001923           JUNCTION        0.09          0.806        0.014
  YS02001926           JUNCTION        0.12          0.900        0.000
  YS02001929           JUNCTION        0.01          0.780        0.000
  YS02006553           JUNCTION        0.80          0.981        0.209
  YS02006556           JUNCTION        0.68          0.919        0.431
  YS02006558           JUNCTION        0.66          0.909        0.491
  YS02006561           JUNCTION        0.36          0.158        0.992
  YS02163301           JUNCTION        0.98          0.912        0.118
  YS02163601           JUNCTION        1.04          1.025        0.055
  YS02164001           JUNCTION        0.94          0.943        0.157
  YSB1154              JUNCTION        0.89          1.400        0.000
  YSB1171              JUNCTION        0.90          1.100        0.000
  YSB1174              JUNCTION        0.81          1.246        0.004
  YSB6556              JUNCTION        0.74          1.100        0.000
  
  
  *********************
  Node Flooding Summary
  *********************
  
  Flooding refers to all water that overflows a node, whether it ponds or not.
  --------------------------------------------------------------------------
                                                             Total   Maximum
                                 Maximum   Time of Max       Flood    Ponded
                        Hours       Rate    Occurrence      Volume     Depth
  Node                 Flooded       LPS   days hr:min    10^6 ltr    Meters
  --------------------------------------------------------------------------
  HS02004770              0.38   1065.52      0  02:14       0.673     0.000
  HS02004777              0.01     20.44      0  02:03       0.000     0.000
  HS02004785              0.01     77.88      0  02:03       0.000     0.000
  HS02004788              0.01    194.54      0  02:03       0.001     0.000
  HS02004792              0.38   1582.34      0  02:14       1.134     0.000
  HS02004799              0.19    214.63      0  02:12       0.085     0.000
  HS02004807              0.09    242.08      0  02:14       0.045     0.000
  HS02004817              0.01      8.43      0  02:06       0.000     0.000
  HS02004824              0.01     22.79      0  02:06       0.000     0.000
  HS02004830              0.01      5.88      0  02:06       0.000     0.000
  HS02004842              0.01    123.93      0  02:06       0.001     0.000
  HS02004901              0.45    639.38      0  02:13       0.694     0.000
  WS02006109              0.43    286.23      0  02:13       0.257     0.000
  WS02006228              0.01      1.80      0  02:15       0.000     0.000
  WS02006230              0.71    573.76      0  02:12       0.974     0.000
  WS02006232              0.17      2.98      0  02:05       0.000     0.000
  WS02006234              0.75    128.34      0  02:28       0.217     0.000
  WS02006235              0.01     31.78      0  02:55       0.000     0.000
  WS02006239              0.01      4.36      0  02:55       0.000     0.000
  WS02006242              0.85    137.85      0  02:21       0.362     0.000
  WS02006248              1.12    338.85      0  02:21       1.204     0.000
  WS02006249              1.87   1300.22      0  02:13       4.187     0.000
  WS02006252              0.48    665.29      0  02:13       0.569     0.000
  WS02006256              0.50    294.24      0  02:20       0.341     0.000
  YS02001580              0.01     41.66      0  02:02       0.000     0.000
  YS02001586              0.47    379.60      0  02:15       0.316     0.000
  YS02001590              0.01      5.81      0  02:02       0.000     0.000
  YS02001600              0.01      2.57      0  02:02       0.000     0.000
  YS02001601              0.69   1152.77      0  02:14       1.320     0.000
  YS02001602              0.58     62.05      0  02:21       0.119     0.000
  YS02001605              0.01      0.34      0  02:09       0.000     0.000
  YS02001607              0.01      0.29      0  02:29       0.000     0.000
  YS02001610              0.51    665.92      0  02:15       0.629     0.000
  YS02001616              0.01     13.92      0  02:29       0.000     0.000
  YS02001619              0.01     15.42      0  02:29       0.000     0.000
  YS02001625              0.49   1306.24      0  02:14       1.222     0.000
  YS02001629              0.08     45.73      0  02:09       0.005     0.000
  YS02001644              0.22    927.88      0  02:13       0.385     0.000
  YS02001779              0.19    485.32      0  02:14       0.168     0.000
  YS02001890              0.17    250.54      0  02:13       0.070     0.000
  YS02001907              0.34   1726.20      0  02:14       1.139     0.000
  YS02001918              0.01     99.79      0  02:07       0.001     0.000
  YS02001926              0.01     39.51      0  02:07       0.000     0.000
  YS02001929              0.01    227.46      0  02:07       0.001     0.000
  YSB1154                 0.01      1.17      0  02:04       0.000     0.000
  YSB1171                 0.29    992.87      0  02:13       0.568     0.000
  YSB6556                 0.01      8.00      0  02:04       0.000     0.000
  
  
  **********************
  Storage Volume Summary
  **********************
  
  --------------------------------------------------------------------------------------------------
                         Average     Avg  Evap Exfil       Maximum     Max    Time of Max    Maximum
                          Volume    Pcnt  Pcnt  Pcnt        Volume    Pcnt     Occurrence    Outflow
  Storage Unit           1000 m3    Full  Loss  Loss       1000 m3    Full    days hr:min        LPS
  --------------------------------------------------------------------------------------------------
  CC-storage               2.684      42     0     0         4.953      77       0  02:37    1783.53
  JK-storage               0.089      30     0     0         0.212      73       0  02:25    2300.00
  XR-storage               0.951      66     0     0         1.111      77       0  08:00     380.00
  
  
  ***********************
  Outfall Loading Summary
  ***********************
  
  -----------------------------------------------------------
                         Flow       Avg       Max       Total
                         Freq      Flow      Flow      Volume
  Outfall Node           Pcnt       LPS       LPS    10^6 ltr
  -----------------------------------------------------------
  CC-1                  18.41    683.00    683.00       3.466
  CC-2                  14.89    683.00    683.00       2.824
  JK-1                   9.30   1000.00   1000.00       2.528
  JK-2                   3.75   1000.00   1000.00       1.078
  WSC                   99.96    599.32   1513.10      15.166
  -----------------------------------------------------------
  System                29.26   3965.32   1513.10      25.061
  
  
  ********************
  Link Flow Summary
  ********************
  
  -----------------------------------------------------------------------------
                                 Maximum  Time of Max   Maximum    Max/    Max/
                                  |Flow|   Occurrence   |Veloc|    Full    Full
  Link                 Type          LPS  days hr:min     m/sec    Flow   Depth
  -----------------------------------------------------------------------------
  1                    CONDUIT   1513.10     0  02:17      3.70    0.53    0.52
  HS02004478WS02006287 CONDUIT   2305.69     0  02:11      2.61    0.65    1.00
  HS02004479HS02004480 CONDUIT    386.09     0  02:06      0.55    0.37    1.00
  HS02004480HS02004478 CONDUIT   2072.83     0  02:05      2.96    8.73    1.00
  HS02004770HS02004777 CONDUIT    716.49     0  02:03      1.02    1.31    1.00
  HS02004777HS02004785 CONDUIT    734.37     0  02:03      1.10    0.90    1.00
  HS02004785HS02004788 CONDUIT    632.71     0  02:03      1.35    4.77    1.00
  HS02004788HS02004792 CONDUIT    814.74     0  02:13      1.45    0.54    1.00
  HS02004792HS02004799 CONDUIT   1568.14     0  02:05      2.24    0.96    1.00
  HS02004799HS02004480 CONDUIT   1721.70     0  02:05      2.46    2.18    1.00
  HS02004802HS02004478 CONDUIT   1232.85     0  02:15      1.76    1.09    1.00
  HS02004807HS02004802 CONDUIT   1232.75     0  02:16      1.76    2.35    1.00
  HS02004817HS02004807 CONDUIT   1028.41     0  02:14      1.47    0.61    1.00
  HS02004817HS02004824 CONDUIT   1027.69     0  02:14      1.47    0.46    1.00
  HS02004824HS02004830 CONDUIT    588.60     0  02:04      0.84    0.77    1.00
  HS02004830HS02004837 CONDUIT    599.56     0  02:04      0.95    0.60    1.00
  HS02004837HS02004842 CONDUIT    797.08     0  02:05      1.14    0.48    1.00
  HS02004842HS02004848 CONDUIT    796.26     0  02:05      1.26    0.46    1.00
  HS02004848HS02004852 CONDUIT    999.84     0  02:06      1.58    1.13    1.00
  HS02004852HS02004856 CONDUIT    969.99     0  02:06      1.46    1.11    1.00
  HS02004856HS02004862 CONDUIT   1039.97     0  02:06      1.68    1.04    1.00
  HS02004862HS02004870 CONDUIT   1027.73     0  02:06      1.75    1.11    1.00
  HS02004870HS02004876 CONDUIT   1218.05     0  02:13      1.74    0.81    1.00
  HS02004876HS02004881 CONDUIT   1457.03     0  02:13      2.15   15.50    1.00
  HS02004881HS02006253 CONDUIT   1590.99     0  02:13      2.75    0.31    1.00
  HS02004901HS02004770 CONDUIT    265.79     0  02:26      0.38    1.00    1.00
  WS02001211WS02001212 CONDUIT    210.65     0  02:59      0.54    0.16    0.69
  WS02001212WS02001213 CONDUIT    215.20     0  02:59      1.03    0.33    0.56
  WS02001213WS02003059 CONDUIT    218.51     0  02:52      0.47    0.36    0.90
  WS02003059WS02003060 CONDUIT    223.96     0  02:51      0.66    0.15    0.81
  WS02003060WS02003069 CONDUIT   1510.10     0  02:15      2.09    0.59    0.61
  WS02003066WSF200     CONDUIT   1310.58     0  02:14      3.25    0.22    0.39
  WS02003067WS02003066 CONDUIT   1310.43     0  02:14      2.01    0.42    0.56
  WS02003069WS02003072 CONDUIT   1510.38     0  02:15      1.90    0.73    0.66
  WS02003072WS02003073 CONDUIT   1510.62     0  02:16      2.05    3.26    0.62
  WS02004138WS02004139 CONDUIT    190.27     0  00:29      2.17    0.04    0.42
  WS02004139WS02001211 CONDUIT    198.25     0  03:00      0.54    0.25    0.61
  WS02004401WS02004402 CONDUIT   1310.42     0  02:13      1.67    1.57    1.00
  WS02004402WS02004403 CONDUIT   1310.12     0  02:13      1.67    1.88    1.00
  WS02004403WS02004404 CONDUIT   1310.59     0  02:13      1.67    0.95    1.00
  WS02004404WS02004405 CONDUIT   1311.01     0  02:13      1.67   12.84    1.00
  WS02004405WS02004406 CONDUIT   1311.05     0  02:13      1.67    2.59    1.00
  WS02004406WS02004407 CONDUIT   1310.98     0  02:13      1.73    0.59    0.97
  WS02004407WS02004409 CONDUIT   1309.97     0  02:14      1.78    0.46    0.97
  WS02004409WS02004410 CONDUIT   1310.03     0  02:14      1.67    1.69    1.00
  WS02004410WS02004411 CONDUIT   1310.01     0  02:14      1.67    1.79    1.00
  WS02004411WS02004412 CONDUIT   1309.84     0  02:13      1.67    1.86    1.00
  WS02004412WS02004413 CONDUIT   1309.87     0  02:13      1.67    0.88    1.00
  WS02004413WS02003067 CONDUIT   1309.90     0  02:14      2.02    0.56    0.77
  WS02006109WS02006110 CONDUIT   1125.70     0  02:29      2.24    2.16    1.00
  WS02006110WS02006113 CONDUIT   1125.32     0  02:29      2.24    1.02    1.00
  WS02006111WS02006112 CONDUIT   1125.36     0  02:30      2.24    0.54    1.00
  WS02006112WS02006115 CONDUIT   1310.21     0  02:12      1.67    0.77    1.00
  WS02006113WS02006111 CONDUIT   1124.98     0  02:29      2.62    1.35    1.00
  WS02006115WS02006116 CONDUIT   1310.64     0  02:12      1.67    1.68    1.00
  WS02006116WS02004401 CONDUIT   1310.16     0  02:12      1.67    1.81    1.00
  WS02006228WS02006109 CONDUIT   1288.24     0  02:12      2.56    5.63    1.00
  WS02006229WS02006228 CONDUIT   1288.65     0  02:12      2.56    4.27    1.00
  WS02006230WS02006229 CONDUIT   1016.19     0  02:12      2.64   22.61    1.00
  WS02006231WS02006230 CONDUIT    455.06     0  02:05      1.22    6.90    1.00
  WS02006232WS02006231 CONDUIT    454.31     0  02:05      1.18    0.95    1.00
  WS02006234WS02006232 CONDUIT    453.18     0  02:04      1.41    0.92    1.00
  WS02006235WS02006234 CONDUIT    434.22     0  02:05      1.21    4.58    1.00
  WS02006238WS02006235 CONDUIT    419.31     0  03:43      1.45    0.94    1.00
  WS02006239WS02006238 CONDUIT    419.31     0  03:42      1.11    1.34    1.00
  WS02006240WS02006239 CONDUIT    419.31     0  03:42      1.26    1.32    1.00
  WS02006242WS02006240 CONDUIT    419.30     0  03:42      1.14    1.67    1.00
  WS02006243WS02006242 CONDUIT    419.28     0  03:42      1.34    0.90    1.00
  WS02006245WS02006243 CONDUIT    419.37     0  03:41      1.39    1.24    1.00
  WS02006247WS02006245 CONDUIT    419.66     0  03:41      1.37    3.33    1.00
  WS02006248WS02006247 CONDUIT    419.80     0  03:41      1.38    0.91    1.00
  WS02006249WS02006248 CONDUIT    419.77     0  03:41      1.38    2.30    1.00
  WS02006251WS02006249 CONDUIT   1361.04     0  02:13      3.54    3.92    1.00
  WS02006252WS02006251 CONDUIT    411.68     0  01:59      3.87    1.51    1.00
  WS02006253WS02006251 CONDUIT   1625.92     0  02:13      4.22    4.88    1.00
  WS02006256WS02006235 CONDUIT    288.93     0  00:00      4.23    3.06    1.00
  WS02006280WS02006229 CONDUIT   2306.45     0  02:12      4.44    0.49    1.00
  WS02006284WS02006280 CONDUIT   2304.24     0  02:12      3.02    0.96    1.00
  WS02006287WS02006284 CONDUIT   2303.69     0  02:12      2.93    1.07    1.00
  WSF200WS02003060     CONDUIT   1310.76     0  02:14      2.29    0.29    0.50
  YS02001580YS02001583 CONDUIT     76.65     0  02:02      0.57    0.30    1.00
  YS02001583YS02001586 CONDUIT    136.46     0  02:02      0.56    0.21    1.00
  YS02001586YS02001590 CONDUIT    317.96     0  02:10      1.25    0.56    1.00
  YS02001590YS02001593 CONDUIT    318.00     0  02:29      1.12    2.00    1.00
  YS02001593YS02001596 CONDUIT    318.02     0  02:10      1.73    0.50    1.00
  YS02001596YS02001600 CONDUIT    318.03     0  02:23      1.25    0.62    1.00
  YS02001600YS02001601 CONDUIT    317.89     0  02:11      1.12    0.55    1.00
  YS02001601YS02001602 CONDUIT    503.08     0  02:01      1.78    1.82    1.00
  YS02001602YS02001605 CONDUIT    502.42     0  02:01      1.78   10.63    1.00
  YS02001605YS02001607 CONDUIT    501.69     0  02:01      1.77    2.75    1.00
  YS02001607YS02001610 CONDUIT    499.83     0  02:01      0.64    0.48    1.00
  YS02001610YS02001613 CONDUIT    499.86     0  02:02      0.64    0.58    1.00
  YS02001613YS02001616 CONDUIT    501.05     0  02:01      0.64    0.43    1.00
  YS02001616YS02001619 CONDUIT    497.90     0  02:02      0.66    0.86    1.00
  YS02001619YS02001622 CONDUIT    925.14     0  02:12      1.18    1.36    1.00
  YS02001622YS02001625 CONDUIT    925.67     0  02:12      1.18    0.49    1.00
  YS02001625YS02001629 CONDUIT    908.94     0  02:05      1.16    0.43    1.00
  YS02001629YS02163301 CONDUIT    908.61     0  02:05      1.16    1.12    1.00
  YS02001633YS02163601 CONDUIT   1301.31     0  02:05      1.66    1.37    1.00
  YS02001641YS02001644 CONDUIT   1300.80     0  02:05      1.66    4.21    1.00
  YS02001644YS02001647 CONDUIT   1657.06     0  02:05      2.14    0.97    1.00
  YS02001647YS02001649 CONDUIT   1663.54     0  02:05      2.28    0.88    1.00
  YS02001649YS02001757 CONDUIT   1800.89     0  02:04      2.35    1.09    1.00
  YS02001652YS02001649 CONDUIT    827.58     0  02:13      1.05    0.41    1.00
  YS02001655YS02001652 CONDUIT    827.77     0  02:13      1.29    0.40    1.00
  YS02001658YS02001655 CONDUIT    827.73     0  02:13      1.85    0.35    1.00
  YS02001661YS02001658 CONDUIT    827.35     0  02:13      2.19    0.32    1.00
  YS02001664YS02001661 CONDUIT    838.18     0  02:12      2.12    0.26    0.76
  YS02001745YS02001748 CONDUIT    518.71     0  02:13      2.04    0.20    0.90
  YS02001748YS02001751 CONDUIT    519.45     0  02:13      1.61    0.26    1.00
  YS02001751YS02001754 CONDUIT    520.25     0  02:13      1.43    0.25    1.00
  YS02001754YS02001757 CONDUIT    520.18     0  02:13      0.66    0.21    1.00
  YS02001757CaochengTiaoxuchi CONDUIT   3053.05     0  02:12      3.89    1.32    1.00
  YS02001759YS02001757 CONDUIT   1259.15     0  02:11      1.60    0.89    1.00
  YS02001762YS02001759 CONDUIT    688.40     0  02:10      0.88    0.79    1.00
  YS02001765YS02001762 CONDUIT    686.86     0  02:10      0.87    0.64    1.00
  YS02001767YS02001765 CONDUIT    687.16     0  02:10      0.87    0.86    1.00
  YS02001770YS02001767 CONDUIT    687.08     0  02:10      0.87    2.72    1.00
  YS02001774YS02001770 CONDUIT    485.63     0  02:14      0.62    0.31    1.00
  YS02001779YS02001774 CONDUIT    485.65     0  02:14      0.62    0.24    1.00
  YS02001783YS02001784 CONDUIT   1163.44     0  02:12      2.31    1.60    1.00
  YS02001784YS02001785 CONDUIT   1164.65     0  02:12      2.32    2.71    1.00
  YS02001786YS02001788 CONDUIT   1165.13     0  02:12      2.49    2.24    0.89
  YS02001788YS02001790 CONDUIT   1179.08     0  02:11      2.73    0.87    0.84
  YS02001790YS02001791 CONDUIT   1283.90     0  02:09      3.44    1.40    0.70
  YS02001791YS02001793 CONDUIT   1241.21     0  02:19      6.73    0.53    0.44
  YS02001793JiankangQianchi CONDUIT   1241.90     0  02:11      2.49    0.10    0.65
  YS02001882YS02001884 CONDUIT     27.80     0  02:04      0.13    0.03    1.00
  YS02001884YS02001887 CONDUIT     54.66     0  02:04      0.09    0.07    1.00
  YS02001887YS02001890 CONDUIT    765.81     0  02:13      0.98    1.31    1.00
  YS02001890YS02001895 CONDUIT    517.04     0  02:15      0.66    0.24    1.00
  YS02001895YS02001898 CONDUIT    517.59     0  02:16      0.66    0.90    1.00
  YS02001898YS02001901 CONDUIT    517.30     0  02:16      0.66    0.33    1.00
  YS02001901YS02001904 CONDUIT    517.63     0  02:15      0.66    0.80    1.00
  YS02001904YS02001907 CONDUIT    517.40     0  02:16      0.66    0.18    1.00
  YS02001907YS02006553 CONDUIT    809.75     0  02:29      0.90    0.95    1.00
  YS02001910YS02001907 CONDUIT   1347.53     0  02:14      1.72    0.76    1.00
  YS02001915YS02001910 CONDUIT   1347.66     0  02:14      1.72    0.67    1.00
  YS02001918YS02001915 CONDUIT    454.76     0  02:14      0.58    0.25    1.00
  YS02001920YS02001918 CONDUIT    454.02     0  02:14      0.64    0.44    1.00
  YS02001923YS02001920 CONDUIT    451.40     0  02:14      0.69    0.20    1.00
  YS02001926YS02001923 CONDUIT    451.20     0  02:14      0.95    0.64    1.00
  YS02001929YS02001926 CONDUIT    450.93     0  02:14      1.09    0.21    1.00
  YS02006553YS02006556 CONDUIT    802.65     0  02:29      1.02    0.69    1.00
  YS02006556YS02006558 CONDUIT    805.90     0  02:29      1.03    0.64    1.00
  YS02006558YS02006561 CONDUIT   1163.75     0  02:12      4.12    2.57    1.00
  YS02006561YS02001783 CONDUIT   1163.62     0  02:12      2.31    0.60    1.00
  YS02163301YS02001633 CONDUIT    907.97     0  02:05      1.16    0.85    1.00
  YS02163601YS02164001 CONDUIT   1300.64     0  02:05      1.66    1.15    1.00
  YS02164001YS02001641 CONDUIT   1299.51     0  02:05      1.65    1.77    1.00
  YSB1154YSB6556       CONDUIT    414.37     0  02:14      1.08    0.75    1.00
  YSB1171HS02004479    CONDUIT    386.49     0  02:06      0.77    0.26    1.00
  YSB1174YSB1171       CONDUIT    360.18     0  02:13      0.94    0.55    1.00
  YSB6556YSB1171       CONDUIT    414.62     0  02:14      1.08    0.43    1.00
  CC-R1                PUMP       683.00     0  00:00              1.00
  CC-R2                PUMP       683.00     0  00:00              1.00
  CC-S1                PUMP       200.00     0  00:00              1.00
  CC-S2                PUMP       200.00     0  00:00              1.00
  JK-R1                PUMP      1000.00     0  00:00              1.00
  JK-R2                PUMP      1000.00     0  00:00              1.00
  JK-S                 PUMP       300.00     0  00:00              1.00
  XR-1                 PUMP        95.00     0  00:00              1.00
  XR-2                 PUMP        95.00     0  00:00              1.00
  XR-3                 PUMP        95.00     0  00:00              1.00
  XR-4                 PUMP        95.00     0  00:00              1.00
  
  
  ***************************
  Flow Classification Summary
  ***************************
  
  -------------------------------------------------------------------------------------
                      Adjusted    ---------- Fraction of Time in Flow Class ---------- 
                       /Actual         Up    Down  Sub   Sup   Up    Down  Norm  Inlet 
  Conduit               Length    Dry  Dry   Dry   Crit  Crit  Crit  Crit  Ltd   Ctrl  
  -------------------------------------------------------------------------------------
  1                       1.00   0.00  0.00  0.00  0.00  1.00  0.00  0.00  0.51  0.00
  HS02004478WS02006287    1.00   0.11  0.00  0.00  0.68  0.21  0.00  0.00  0.59  0.00
  HS02004479HS02004480    1.00   0.06  0.00  0.00  0.94  0.00  0.00  0.00  0.11  0.00
  HS02004480HS02004478    1.00   0.10  0.00  0.00  0.64  0.00  0.00  0.26  0.00  0.00
  HS02004770HS02004777    1.00   0.00  0.10  0.00  0.90  0.00  0.00  0.00  0.03  0.00
  HS02004777HS02004785    1.00   0.00  0.00  0.00  1.00  0.00  0.00  0.00  0.12  0.00
  HS02004785HS02004788    1.00   0.00  0.00  0.00  1.00  0.00  0.00  0.00  0.00  0.00
  HS02004788HS02004792    1.00   0.00  0.00  0.00  0.99  0.01  0.00  0.00  0.90  0.00
  HS02004792HS02004799    1.00   0.00  0.00  0.00  0.99  0.01  0.00  0.00  0.86  0.00
  HS02004799HS02004480    1.00   0.00  0.06  0.00  0.89  0.00  0.04  0.00  0.00  0.00
  HS02004802HS02004478    1.00   0.10  0.00  0.00  0.90  0.00  0.00  0.00  0.03  0.00
  HS02004807HS02004802    1.00   0.10  0.00  0.00  0.89  0.00  0.00  0.01  0.00  0.00
  HS02004817HS02004807    1.00   0.00  0.10  0.00  0.90  0.00  0.00  0.00  0.01  0.00
  HS02004817HS02004824    1.00   0.00  0.00  0.00  1.00  0.00  0.00  0.00  0.81  0.00
  HS02004824HS02004830    1.00   0.00  0.00  0.00  1.00  0.00  0.00  0.00  0.01  0.00
  HS02004830HS02004837    1.00   0.00  0.00  0.00  1.00  0.00  0.00  0.00  0.88  0.00
  HS02004837HS02004842    1.00   0.00  0.00  0.00  1.00  0.00  0.00  0.00  0.11  0.00
  HS02004842HS02004848    1.00   0.00  0.10  0.00  0.90  0.00  0.00  0.00  0.55  0.00
  HS02004848HS02004852    1.00   0.10  0.00  0.00  0.90  0.00  0.00  0.00  0.70  0.00
  HS02004852HS02004856    1.00   0.10  0.00  0.00  0.90  0.00  0.00  0.00  0.67  0.00
  HS02004856HS02004862    1.00   0.00  0.11  0.00  0.89  0.00  0.00  0.00  0.74  0.00
  HS02004862HS02004870    1.00   0.00  0.00  0.00  1.00  0.00  0.00  0.00  0.03  0.00
  HS02004870HS02004876    1.00   0.00  0.00  0.00  0.97  0.02  0.00  0.00  0.86  0.00
  HS02004876HS02004881    1.00   0.03  0.00  0.00  0.81  0.17  0.00  0.00  0.00  0.00
  HS02004881HS02006253    1.00   0.01  0.06  0.00  0.66  0.01  0.00  0.25  0.34  0.00
  HS02004901HS02004770    1.00   0.10  0.00  0.00  0.90  0.00  0.00  0.00  0.00  0.00
  WS02001211WS02001212    1.00   0.00  0.04  0.00  0.96  0.00  0.00  0.00  0.00  0.00
  WS02001212WS02001213    1.00   0.04  0.00  0.00  0.55  0.00  0.41  0.00  0.00  0.00
  WS02001213WS02003059    1.00   0.00  0.00  0.00  1.00  0.00  0.00  0.00  0.00  0.00
  WS02003059WS02003060    1.00   0.00  0.00  0.00  1.00  0.00  0.00  0.00  0.03  0.00
  WS02003060WS02003069    1.00   0.00  0.00  0.00  0.99  0.01  0.00  0.00  0.43  0.00
  WS02003066WSF200        1.00   0.08  0.00  0.00  0.00  0.92  0.00  0.00  0.63  0.00
  WS02003067WS02003066    1.00   0.07  0.00  0.00  0.92  0.00  0.00  0.00  0.00  0.00
  WS02003069WS02003072    1.00   0.00  0.00  0.00  1.00  0.00  0.00  0.00  0.52  0.00
  WS02003072WS02003073    1.00   0.00  0.00  0.00  0.00  0.00  0.00  1.00  0.00  0.00
  WS02004138WS02004139    1.00   0.00  0.01  0.00  0.95  0.02  0.00  0.02  0.98  0.00
  WS02004139WS02001211    1.00   0.00  0.00  0.00  0.99  0.00  0.00  0.00  0.00  0.00
  WS02004401WS02004402    1.00   0.04  0.00  0.00  0.96  0.00  0.00  0.00  0.00  0.00
  WS02004402WS02004403    1.00   0.04  0.00  0.00  0.95  0.00  0.00  0.00  0.00  0.00
  WS02004403WS02004404    1.00   0.00  0.05  0.00  0.95  0.00  0.00  0.00  0.00  0.00
  WS02004404WS02004405    1.00   0.00  0.00  0.00  1.00  0.00  0.00  0.00  0.01  0.00
  WS02004405WS02004406    1.00   0.00  0.00  0.00  1.00  0.00  0.00  0.00  0.00  0.00
  WS02004406WS02004407    1.00   0.00  0.06  0.00  0.93  0.00  0.00  0.00  0.00  0.00
  WS02004407WS02004409    1.00   0.07  0.00  0.00  0.93  0.01  0.00  0.00  0.83  0.00
  WS02004409WS02004410    1.00   0.07  0.00  0.00  0.93  0.00  0.00  0.00  0.00  0.00
  WS02004410WS02004411    1.00   0.07  0.00  0.00  0.93  0.00  0.00  0.00  0.00  0.00
  WS02004411WS02004412    1.00   0.07  0.00  0.00  0.93  0.00  0.00  0.00  0.00  0.00
  WS02004412WS02004413    1.00   0.07  0.00  0.00  0.93  0.00  0.00  0.00  0.00  0.00
  WS02004413WS02003067    1.00   0.07  0.00  0.00  0.00  0.00  0.93  0.00  0.00  0.00
  WS02006109WS02006110    1.00   0.00  0.00  0.00  0.98  0.00  0.02  0.00  0.00  0.00
  WS02006110WS02006113    1.00   0.01  0.02  0.00  0.97  0.00  0.00  0.00  0.00  0.00
  WS02006111WS02006112    1.00   0.03  0.00  0.00  0.96  0.01  0.00  0.01  0.77  0.00
  WS02006112WS02006115    1.00   0.03  0.01  0.00  0.95  0.00  0.01  0.00  0.00  0.00
  WS02006113WS02006111    1.00   0.03  0.00  0.00  0.20  0.78  0.00  0.00  0.10  0.00
  WS02006115WS02006116    1.00   0.04  0.00  0.00  0.94  0.00  0.00  0.02  0.00  0.00
  WS02006116WS02004401    1.00   0.04  0.00  0.00  0.96  0.00  0.00  0.00  0.00  0.00
  WS02006228WS02006109    1.00   0.00  0.00  0.00  1.00  0.00  0.00  0.00  0.00  0.00
  WS02006229WS02006228    1.00   0.00  0.00  0.00  0.99  0.00  0.00  0.00  0.00  0.00
  WS02006230WS02006229    1.00   0.00  0.00  0.00  0.98  0.00  0.00  0.02  0.00  0.00
  WS02006231WS02006230    1.00   0.00  0.00  0.00  0.40  0.00  0.60  0.00  0.00  0.00
  WS02006232WS02006231    1.00   0.00  0.00  0.00  0.99  0.00  0.01  0.00  0.00  0.00
  WS02006234WS02006232    1.00   0.00  0.00  0.00  1.00  0.00  0.00  0.00  0.17  0.00
  WS02006235WS02006234    1.00   0.00  0.00  0.00  0.87  0.00  0.13  0.00  0.00  0.00
  WS02006238WS02006235    1.00   0.00  0.00  0.00  1.00  0.00  0.00  0.00  0.00  0.00
  WS02006239WS02006238    1.00   0.00  0.00  0.00  1.00  0.00  0.00  0.00  0.31  0.00
  WS02006240WS02006239    1.00   0.00  0.00  0.00  0.81  0.00  0.00  0.18  0.00  0.00
  WS02006242WS02006240    1.00   0.00  0.00  0.00  0.99  0.00  0.00  0.00  0.00  0.00
  WS02006243WS02006242    1.00   0.00  0.00  0.00  0.99  0.00  0.00  0.01  0.49  0.00
  WS02006245WS02006243    1.00   0.00  0.00  0.00  0.94  0.00  0.00  0.06  0.00  0.00
  WS02006247WS02006245    1.00   0.00  0.00  0.00  0.98  0.00  0.00  0.02  0.00  0.00
  WS02006248WS02006247    1.00   0.00  0.00  0.00  0.98  0.00  0.00  0.02  0.44  0.00
  WS02006249WS02006248    1.00   0.00  0.00  0.00  0.78  0.00  0.22  0.00  0.00  0.00
  WS02006251WS02006249    1.00   0.00  0.00  0.00  1.00  0.00  0.00  0.00  0.47  0.00
  WS02006252WS02006251    1.00   0.00  0.27  0.00  0.29  0.00  0.44  0.00  0.00  0.00
  WS02006253WS02006251    1.00   0.00  0.00  0.00  1.00  0.00  0.00  0.00  0.00  0.00
  WS02006256WS02006235    1.00   0.00  0.00  0.00  1.00  0.00  0.00  0.00  0.00  0.00
  WS02006280WS02006229    1.00   0.10  0.00  0.00  0.16  0.03  0.00  0.71  0.01  0.00
  WS02006284WS02006280    1.00   0.10  0.00  0.00  0.11  0.02  0.00  0.77  0.00  0.00
  WS02006287WS02006284    1.00   0.09  0.02  0.00  0.55  0.34  0.00  0.00  0.65  0.00
  WSF200WS02003060        1.00   0.00  0.08  0.00  0.54  0.38  0.00  0.00  0.57  0.00
  YS02001580YS02001583    1.00   0.21  0.58  0.00  0.22  0.00  0.00  0.00  0.65  0.00
  YS02001583YS02001586    1.00   0.24  0.50  0.00  0.26  0.00  0.00  0.00  0.65  0.00
  YS02001586YS02001590    1.00   0.10  0.00  0.00  0.61  0.08  0.00  0.20  0.37  0.00
  YS02001590YS02001593    1.00   0.10  0.00  0.00  0.13  0.00  0.77  0.00  0.00  0.00
  YS02001593YS02001596    1.00   0.10  0.00  0.00  0.16  0.01  0.00  0.73  0.02  0.00
  YS02001596YS02001600    1.00   0.10  0.00  0.00  0.23  0.01  0.00  0.66  0.04  0.00
  YS02001600YS02001601    1.00   0.10  0.00  0.00  0.90  0.00  0.00  0.00  0.60  0.00
  YS02001601YS02001602    1.00   0.10  0.00  0.00  0.90  0.00  0.00  0.00  0.00  0.00
  YS02001602YS02001605    1.00   0.10  0.00  0.00  0.90  0.00  0.00  0.00  0.00  0.00
  YS02001605YS02001607    1.00   0.10  0.00  0.00  0.90  0.00  0.00  0.00  0.00  0.00
  YS02001607YS02001610    1.00   0.10  0.00  0.00  0.90  0.00  0.00  0.00  0.01  0.00
  YS02001610YS02001613    1.00   0.10  0.00  0.00  0.90  0.00  0.00  0.00  0.00  0.00
  YS02001613YS02001616    1.00   0.10  0.00  0.00  0.90  0.00  0.00  0.00  0.00  0.00
  YS02001616YS02001619    1.00   0.10  0.00  0.00  0.90  0.00  0.00  0.00  0.00  0.00
  YS02001619YS02001622    1.00   0.10  0.00  0.00  0.90  0.00  0.00  0.00  0.28  0.00
  YS02001622YS02001625    1.00   0.10  0.00  0.00  0.90  0.00  0.00  0.00  0.04  0.00
  YS02001625YS02001629    1.00   0.10  0.02  0.00  0.18  0.00  0.70  0.00  0.00  0.00
  YS02001629YS02163301    1.00   0.11  0.00  0.00  0.89  0.00  0.00  0.00  0.00  0.00
  YS02001633YS02163601    1.00   0.00  0.00  0.00  1.00  0.00  0.00  0.00  0.15  0.00
  YS02001641YS02001644    1.00   0.00  0.00  0.00  1.00  0.00  0.00  0.00  0.00  0.00
  YS02001644YS02001647    1.00   0.00  0.11  0.00  0.89  0.00  0.00  0.00  0.00  0.00
  YS02001647YS02001649    1.00   0.00  0.11  0.00  0.40  0.49  0.00  0.00  0.55  0.00
  YS02001649YS02001757    1.00   0.00  0.00  0.00  0.82  0.18  0.00  0.00  0.43  0.00
  YS02001652YS02001649    1.00   0.00  0.00  0.00  0.98  0.02  0.00  0.00  0.72  0.00
  YS02001655YS02001652    1.00   0.00  0.00  0.00  0.21  0.02  0.00  0.77  0.05  0.00
  YS02001658YS02001655    1.00   0.00  0.10  0.00  0.70  0.19  0.00  0.00  0.68  0.00
  YS02001661YS02001658    1.00   0.10  0.00  0.00  0.39  0.50  0.00  0.00  0.67  0.00
  YS02001664YS02001661    1.00   0.10  0.00  0.00  0.78  0.12  0.00  0.00  0.85  0.00
  YS02001745YS02001748    1.00   0.00  0.00  0.00  0.12  0.01  0.00  0.88  0.04  0.00
  YS02001748YS02001751    1.00   0.00  0.00  0.00  0.83  0.17  0.00  0.00  0.74  0.00
  YS02001751YS02001754    1.00   0.00  0.00  0.00  0.19  0.01  0.00  0.80  0.03  0.00
  YS02001754YS02001757    1.00   0.00  0.00  0.00  1.00  0.00  0.00  0.00  0.80  0.00
  YS02001757CaochengTiaoxuchi    1.00   0.00  0.00  0.00  1.00  0.00  0.00  0.00  0.57  0.00
  YS02001759YS02001757    1.00   0.00  0.00  0.00  1.00  0.00  0.00  0.00  0.50  0.00
  YS02001762YS02001759    1.00   0.00  0.00  0.00  1.00  0.00  0.00  0.00  0.06  0.00
  YS02001765YS02001762    1.00   0.00  0.00  0.00  1.00  0.00  0.00  0.00  0.65  0.00
  YS02001767YS02001765    1.00   0.00  0.00  0.00  1.00  0.00  0.00  0.00  0.01  0.00
  YS02001770YS02001767    1.00   0.00  0.00  0.00  1.00  0.00  0.00  0.00  0.00  0.00
  YS02001774YS02001770    1.00   0.00  0.10  0.00  0.82  0.00  0.08  0.00  0.03  0.00
  YS02001779YS02001774    1.00   0.00  0.00  0.00  1.00  0.00  0.00  0.00  0.75  0.00
  YS02001783YS02001784    1.00   0.00  0.12  0.00  0.88  0.00  0.00  0.00  0.55  0.00
  YS02001784YS02001785    1.00   0.00  0.00  0.00  1.00  0.00  0.00  0.00  0.17  0.00
  YS02001786YS02001788    1.00   0.00  0.00  0.00  0.75  0.25  0.00  0.00  0.00  0.00
  YS02001788YS02001790    1.00   0.00  0.00  0.00  0.15  0.85  0.00  0.00  0.80  0.00
  YS02001790YS02001791    1.00   0.00  0.00  0.00  0.02  0.98  0.00  0.00  0.16  0.00
  YS02001791YS02001793    1.00   0.00  0.00  0.00  0.00  1.00  0.00  0.00  0.01  0.00
  YS02001793JiankangQianchi    1.00   0.00  0.00  0.00  0.98  0.02  0.00  0.00  0.96  0.00
  YS02001882YS02001884    1.00   0.11  0.00  0.00  0.89  0.00  0.00  0.00  0.00  0.00
  YS02001884YS02001887    1.00   0.08  0.02  0.00  0.90  0.00  0.00  0.00  0.00  0.00
  YS02001887YS02001890    1.00   0.00  0.00  0.00  0.94  0.00  0.06  0.00  0.00  0.00
  YS02001890YS02001895    1.00   0.00  0.11  0.00  0.89  0.00  0.00  0.00  0.00  0.00
  YS02001895YS02001898    1.00   0.11  0.00  0.00  0.88  0.00  0.01  0.00  0.00  0.00
  YS02001898YS02001901    1.00   0.11  0.00  0.00  0.89  0.00  0.00  0.00  0.01  0.00
  YS02001901YS02001904    1.00   0.11  0.00  0.00  0.89  0.00  0.00  0.00  0.00  0.00
  YS02001904YS02001907    1.00   0.00  0.11  0.00  0.89  0.00  0.00  0.00  0.00  0.00
  YS02001907YS02006553    1.00   0.00  0.04  0.00  0.96  0.00  0.00  0.00  0.00  0.00
  YS02001910YS02001907    1.00   0.00  0.00  0.00  0.95  0.01  0.00  0.05  0.12  0.00
  YS02001915YS02001910    1.00   0.00  0.00  0.00  0.96  0.04  0.00  0.00  0.16  0.00
  YS02001918YS02001915    1.00   0.00  0.00  0.00  0.95  0.04  0.00  0.00  0.74  0.00
  YS02001920YS02001918    1.00   0.00  0.00  0.00  1.00  0.00  0.00  0.00  0.00  0.00
  YS02001923YS02001920    1.00   0.00  0.00  0.00  1.00  0.00  0.00  0.00  0.92  0.00
  YS02001926YS02001923    1.00   0.00  0.08  0.00  0.06  0.00  0.86  0.00  0.00  0.00
  YS02001929YS02001926    1.00   0.00  0.10  0.00  0.90  0.00  0.00  0.00  0.82  0.00
  YS02006553YS02006556    1.00   0.01  0.00  0.00  0.99  0.00  0.00  0.00  0.03  0.00
  YS02006556YS02006558    1.00   0.00  0.00  0.00  1.00  0.00  0.00  0.00  0.00  0.00
  YS02006558YS02006561    1.00   0.12  0.00  0.00  0.05  0.83  0.00  0.00  0.18  0.00
  YS02006561YS02001783    1.00   0.12  0.00  0.00  0.09  0.79  0.00  0.00  0.68  0.00
  YS02163301YS02001633    1.00   0.00  0.11  0.00  0.89  0.00  0.00  0.00  0.00  0.00
  YS02163601YS02164001    1.00   0.00  0.08  0.00  0.92  0.00  0.00  0.00  0.00  0.00
  YS02164001YS02001641    1.00   0.00  0.08  0.00  0.92  0.00  0.00  0.00  0.05  0.00
  YSB1154YSB6556          1.00   0.10  0.00  0.00  0.90  0.00  0.00  0.00  0.02  0.00
  YSB1171HS02004479       1.00   0.07  0.00  0.00  0.93  0.00  0.00  0.01  0.10  0.00
  YSB1174YSB1171          1.00   0.07  0.02  0.00  0.91  0.00  0.00  0.00  0.00  0.00
  YSB6556YSB1171          1.00   0.07  0.03  0.00  0.90  0.00  0.00  0.00  0.00  0.00
  
  
  *************************
  Conduit Surcharge Summary
  *************************
  
  ----------------------------------------------------------------------------
                                                           Hours        Hours 
                         --------- Hours Full --------   Above Full   Capacity
  Conduit                Both Ends  Upstream  Dnstream   Normal Flow   Limited
  ----------------------------------------------------------------------------
  HS02004478WS02006287        0.49      0.49      0.67      0.01         0.01
  HS02004479HS02004480        0.67      0.67      0.70      0.01         0.01
  HS02004480HS02004478        0.60      0.67      0.60      1.69         0.60
  HS02004770HS02004777        0.57      0.57      0.57      0.11         0.07
  HS02004777HS02004785        0.52      0.52      0.57      0.01         0.01
  HS02004785HS02004788        0.51      0.52      0.51      1.44         0.47
  HS02004788HS02004792        0.51      0.51      0.63      0.01         0.01
  HS02004792HS02004799        0.63      0.63      0.76      0.01         0.01
  HS02004799HS02004480        0.67      0.67      0.76      0.86         0.01
  HS02004802HS02004478        0.62      0.62      0.69      0.10         0.01
  HS02004807HS02004802        0.66      0.66      0.68      0.26         0.27
  HS02004817HS02004807        0.66      0.66      1.27      0.01         0.01
  HS02004817HS02004824        0.52      0.52      1.27      0.01         0.01
  HS02004824HS02004830        0.49      0.49      0.52      0.01         0.01
  HS02004830HS02004837        0.45      0.45      0.49      0.01         0.01
  HS02004837HS02004842        0.45      0.45      0.59      0.01         0.01
  HS02004842HS02004848        0.42      0.42      0.59      0.01         0.01
  HS02004848HS02004852        0.42      0.42      0.44      0.02         0.01
  HS02004852HS02004856        0.44      0.44      0.46      0.02         0.01
  HS02004856HS02004862        0.43      0.43      0.46      0.01         0.01
  HS02004862HS02004870        0.46      0.46      0.48      0.18         0.18
  HS02004870HS02004876        0.48      0.48      0.56      0.01         0.01
  HS02004876HS02004881        0.54      0.56      0.54      1.47         0.54
  HS02004881HS02006253        0.54      0.54      2.16      0.01         0.01
  HS02004901HS02004770        0.57      0.57      0.57      0.01         0.01
  WS02003072WS02003073        0.01      0.01      0.01      2.92         0.01
  WS02004401WS02004402        1.49      1.49      1.53      1.32         1.31
  WS02004402WS02004403        1.53      1.53      1.54      1.49         1.48
  WS02004403WS02004404        1.54      1.54      1.73      0.01         0.02
  WS02004404WS02004405        1.68      1.73      1.68      4.06         1.68
  WS02004405WS02004406        1.65      1.68      1.65      2.14         1.65
  WS02004406WS02004407        0.01      0.01      1.65      0.01         0.01
  WS02004407WS02004409        0.01      0.01      1.06      0.01         0.01
  WS02004409WS02004410        0.98      1.06      0.98      1.38         0.98
  WS02004410WS02004411        0.89      0.98      0.89      1.44         0.89
  WS02004411WS02004412        0.79      0.89      0.79      1.48         0.79
  WS02004412WS02004413        0.79      0.79      1.27      0.01         0.01
  WS02004413WS02003067        0.01      0.01      1.27      0.01         0.01
  WS02006109WS02006110        2.05      2.05      2.50      2.05         0.01
  WS02006110WS02006113        1.23      1.23      2.49      0.31         0.01
  WS02006111WS02006112        1.23      1.23      2.67      0.01         0.01
  WS02006112WS02006115        1.40      1.40      2.25      0.01         0.01
  WS02006113WS02006111        1.23      1.23      1.23      1.30         1.23
  WS02006115WS02006116        1.41      1.41      1.41      1.37         1.36
  WS02006116WS02004401        1.49      1.49      1.49      1.45         1.44
  WS02006228WS02006109        2.46      2.50      2.46      3.63         2.46
  WS02006229WS02006228        2.46      2.47      2.46      2.62         2.46
  WS02006230WS02006229        2.53      2.57      2.53      3.91         1.34
  WS02006231WS02006230        1.79      1.79      2.08      3.66         1.06
  WS02006232WS02006231        2.04      2.04      2.35      0.01         0.16
  WS02006234WS02006232        2.28      2.28      2.35      0.01         0.01
  WS02006235WS02006234        2.27      2.27      2.28      3.49         1.01
  WS02006238WS02006235        2.29      2.29      2.31      0.01         0.33
  WS02006239WS02006238        2.29      2.29      2.30      1.74         0.90
  WS02006240WS02006239        2.25      2.25      2.26      1.73         0.88
  WS02006242WS02006240        2.25      2.25      2.28      1.94         0.87
  WS02006243WS02006242        2.22      2.22      2.26      0.01         0.01
  WS02006245WS02006243        2.21      2.21      2.22      0.87         0.84
  WS02006247WS02006245        2.21      2.21      2.21      3.43         1.09
  WS02006248WS02006247        2.20      2.20      2.21      0.01         0.01
  WS02006249WS02006248        2.20      2.20      2.20      2.27         0.01
  WS02006251WS02006249        2.19      2.19      2.20      2.23         2.17
  WS02006252WS02006251        2.25      2.25      2.26      1.73         0.01
  WS02006253WS02006251        2.19      2.19      2.19      0.80         0.01
  WS02006256WS02006235        3.90      3.91      5.59      0.18         0.01
  WS02006280WS02006229        0.79      0.79      0.96      0.01         0.01
  WS02006284WS02006280        0.70      0.70      0.78      0.01         0.01
  WS02006287WS02006284        0.60      0.60      0.71      0.31         0.31
  YS02001580YS02001583        0.61      0.61      0.67      0.01         0.01
  YS02001583YS02001586        0.62      0.62      0.76      0.01         0.01
  YS02001586YS02001590        0.77      0.77      0.84      0.01         0.01
  YS02001590YS02001593        0.84      0.84      0.86      0.87         0.01
  YS02001593YS02001596        0.85      0.85      0.96      0.01         0.01
  YS02001596YS02001600        1.02      1.02      1.14      0.01         0.01
  YS02001600YS02001601        1.19      1.19      1.45      0.01         0.01
  YS02001601YS02001602        1.35      1.35      1.48      1.12         0.01
  YS02001602YS02001605        1.30      1.30      1.35      2.31         0.01
  YS02001605YS02001607        1.26      1.30      1.26      1.40         1.26
  YS02001607YS02001610        0.83      0.83      0.86      0.01         0.01
  YS02001610YS02001613        0.83      0.83      0.86      0.01         0.01
  YS02001613YS02001616        0.79      0.79      0.83      0.01         0.01
  YS02001616YS02001619        0.78      0.78      0.79      0.01         0.01
  YS02001619YS02001622        0.77      0.78      0.77      0.82         0.71
  YS02001622YS02001625        0.77      0.77      0.96      0.01         0.01
  YS02001625YS02001629        0.73      0.73      0.96      0.01         0.01
  YS02001629YS02163301        0.96      0.96      0.98      0.07         0.12
  YS02001633YS02163601        1.00      1.00      1.04      0.28         0.26
  YS02001641YS02001644        0.91      0.94      0.91      1.52         0.89
  YS02001644YS02001647        0.70      0.70      0.91      0.01         0.01
  YS02001647YS02001649        0.70      0.70      0.84      0.01         0.01
  YS02001649YS02001757        0.84      0.84      0.91      0.06         0.04
  YS02001652YS02001649        0.66      0.66      0.84      0.01         0.01
  YS02001655YS02001652        0.48      0.48      0.64      0.01         0.01
  YS02001658YS02001655        0.26      0.26      0.48      0.01         0.01
  YS02001661YS02001658        0.02      0.02      0.26      0.01         0.01
  YS02001664YS02001661        0.01      0.01      0.07      0.01         0.01
  YS02001745YS02001748        0.01      0.01      0.19      0.01         0.01
  YS02001748YS02001751        0.23      0.23      0.36      0.01         0.01
  YS02001751YS02001754        0.36      0.36      0.56      0.01         0.01
  YS02001754YS02001757        0.60      0.60      0.91      0.01         0.01
  YS02001757CaochengTiaoxuchi        0.91      0.91      2.00      0.33         0.32
  YS02001759YS02001757        0.82      0.82      0.91      0.01         0.01
  YS02001762YS02001759        0.78      0.78      0.82      0.01         0.02
  YS02001765YS02001762        0.73      0.73      0.78      0.01         0.01
  YS02001767YS02001765        0.71      0.71      0.73      0.01         0.02
  YS02001770YS02001767        0.70      0.70      0.71      0.53         0.42
  YS02001774YS02001770        0.67      0.67      0.77      0.01         0.01
  YS02001779YS02001774        0.55      0.55      0.77      0.01         0.01
  YS02001783YS02001784        0.52      0.55      0.52      0.71         0.52
  YS02001784YS02001785        0.41      0.52      0.41      0.96         0.41
  YS02001786YS02001788        0.01      0.41      0.01      0.82         0.01
  YS02001790YS02001791        0.01      0.01      0.01      0.50         0.01
  YS02001793JiankangQianchi        0.01      0.01      7.70      0.01         0.01
  YS02001882YS02001884        0.49      0.49      0.50      0.01         0.01
  YS02001884YS02001887        0.52      0.52      0.54      0.01         0.01
  YS02001887YS02001890        0.55      0.55      0.56      0.10         0.01
  YS02001890YS02001895        0.48      0.48      0.58      0.01         0.01
  YS02001895YS02001898        0.47      0.47      0.48      0.01         0.01
  YS02001898YS02001901        0.48      0.48      0.52      0.01         0.01
  YS02001901YS02001904        0.51      0.51      0.52      0.01         0.01
  YS02001904YS02001907        0.51      0.51      0.80      0.01         0.01
  YS02001907YS02006553        0.97      0.97      1.04      0.01         0.01
  YS02001910YS02001907        0.58      0.58      0.78      0.01         0.01
  YS02001915YS02001910        0.49      0.49      0.58      0.01         0.01
  YS02001918YS02001915        0.39      0.39      0.49      0.01         0.01
  YS02001920YS02001918        0.39      0.39      0.41      0.01         0.01
  YS02001923YS02001920        0.35      0.35      0.41      0.01         0.01
  YS02001926YS02001923        0.09      0.09      0.12      0.01         0.01
  YS02001929YS02001926        0.01      0.01      0.12      0.01         0.01
  YS02006553YS02006556        0.68      0.68      0.80      0.01         0.01
  YS02006556YS02006558        0.73      0.73      0.82      0.01         0.01
  YS02006558YS02006561        0.43      0.66      0.43      0.91         0.43
  YS02006561YS02001783        0.36      0.36      0.55      0.01         0.01
  YS02163301YS02001633        0.98      0.98      1.02      0.01         0.01
  YS02163601YS02164001        0.94      0.94      1.04      0.08         0.01
  YS02164001YS02001641        0.94      0.94      0.94      0.67         0.62
  YSB1154YSB6556              0.74      0.74      0.89      0.01         0.01
  YSB1171HS02004479           0.63      0.63      0.90      0.01         0.01
  YSB1174YSB1171              0.81      0.81      1.17      0.01         0.01
  YSB6556YSB1171              0.74      0.74      1.33      0.01         0.01
  
  
  ***************
  Pumping Summary
  ***************
  
  ---------------------------------------------------------------------------------------------------------
                                                  Min       Avg       Max     Total     Power    % Time Off
                        Percent   Number of      Flow      Flow      Flow    Volume     Usage    Pump Curve
  Pump                 Utilized   Start-Ups       LPS       LPS       LPS  10^6 ltr     Kw-hr    Low   High
  ---------------------------------------------------------------------------------------------------------
  CC-R1                   17.62           2      0.00    683.00    683.00     3.465     66.12    0.0    5.9
  CC-R2                   14.35           2      0.00    683.00    683.00     2.823     54.30    0.0    7.3
  CC-S1                   44.89           4      0.00    200.00    200.00     2.586     16.17    0.0    0.0
  CC-S2                   26.24           2      0.00    200.00    200.00     1.512      9.55    0.0    0.0
  JK-R1                    8.78          19      0.00   1000.00   1000.00     2.527     26.69    0.0    0.0
  JK-R2                    3.74          13      0.00   1000.00   1000.00     1.078      8.34    0.0    0.0
  JK-S                     6.25           7      0.00    300.00    300.00     0.540      7.27    0.0    0.0
  XR-1                    97.91           2      0.00     95.00     95.00     2.679      9.63    0.0    0.0
  XR-2                    93.94           2      0.00     95.00     95.00     2.570      8.79    0.0    0.0
  XR-3                     0.00           1      0.00     95.00     95.00     0.000      0.00    0.0    0.0
  XR-4                     0.00           1      0.00     95.00     95.00     0.000      0.00    0.0    0.0
  

  Analysis begun on:  Mon Nov 21 12:21:20 2022
  Analysis ended on:  Mon Nov 21 12:21:22 2022
  Total elapsed time: 00:00:02