
  OWA STORM WATER MANAGEMENT MODEL - VERSION v5.1.14 (OWA 2022-07-31)
  --------------------------------------------------------------

  WARNING 04: minimum elevation drop used for Conduit WS02004404WS02004405
  WARNING 03: negative offset ignored for Link YS02001904YS02001907
  
  *********************************************************
  NOTE: The summary statistics displayed in this report are
  based on results found at every computational time step,  
  not just on results from each reporting time step.
  *********************************************************
  
  ****************
  Analysis Options
  ****************
  Flow Units ............... LPS
  Process Models:
    Rainfall/Runoff ........ YES
    RDII ................... NO
    Snowmelt ............... NO
    Groundwater ............ NO
    Flow Routing ........... YES
    Ponding Allowed ........ NO
    Water Quality .......... NO
  Infiltration Method ...... HORTON
  Flow Routing Method ...... DYNWAVE
  Surcharge Method ......... EXTRAN
  Starting Date ............ 08/28/2015 08:00:00
  Ending Date .............. 08/28/2015 16:00:00
  Antecedent Dry Days ...... 8.0
  Report Time Step ......... 00:01:00
  Wet Time Step ............ 00:01:00
  Dry Time Step ............ 00:01:00
  Routing Time Step ........ 30.00 sec
  Variable Time Step ....... YES
  Maximum Trials ........... 8
  Number of Threads ........ 4
  Head Tolerance ........... 0.001500 m
  
  
  **************************        Volume         Depth
  Runoff Quantity Continuity     hectare-m            mm
  **************************     ---------       -------
  Total Precipitation ......         3.847        63.505
  Evaporation Loss .........         0.000         0.000
  Infiltration Loss ........         0.242         4.001
  Surface Runoff ...........         3.544        58.509
  Final Storage ............         0.061         1.007
  Continuity Error (%) .....        -0.018
  
  
  **************************        Volume        Volume
  Flow Routing Continuity        hectare-m      10^6 ltr
  **************************     ---------     ---------
  Dry Weather Inflow .......         0.630         6.296
  Wet Weather Inflow .......         3.544        35.445
  Groundwater Inflow .......         0.000         0.000
  RDII Inflow ..............         0.000         0.000
  External Inflow ..........         0.105         1.045
  External Outflow .........         0.792         7.920
  Flooding Loss ............         2.847        28.466
  Evaporation Loss .........         0.000         0.000
  Exfiltration Loss ........         0.000         0.000
  Initial Stored Volume ....         0.303         3.031
  Final Stored Volume ......         0.958         9.578
  Continuity Error (%) .....        -0.322
  
  
  *************************
  Highest Continuity Errors
  *************************
  Node WS02006256 (72.79%)
  Node WS02004139 (19.10%)
  Node YS02001774 (6.11%)
  Node YS02001583 (-5.25%)
  Node YS02001884 (5.25%)
  
  
  ***************************
  Time-Step Critical Elements
  ***************************
  Link WS02006280WS02006229 (65.97%)
  Link WS02003066WSF200 (8.68%)
  Link WS02004404WS02004405 (8.30%)
  Link WS02006252WS02006251 (3.81%)
  Link YS02006556YS02006558 (1.31%)
  
  
  ********************************
  Highest Flow Instability Indexes
  ********************************
  Link YS02001791YS02001793 (48)
  Link YS02001793JiankangQianchi (46)
  Link YS02001790YS02001791 (40)
  Link YS02001788YS02001790 (37)
  Link YS02001779YS02001774 (37)
  
  
  *************************
  Routing Time Step Summary
  *************************
  Minimum Time Step           :     0.01 sec
  Average Time Step           :     2.92 sec
  Maximum Time Step           :    30.00 sec
  Percent in Steady State     :    -0.00
  Average Iterations per Step :     4.79
  Percent Not Converging      :    25.36
  
  
  ***************************
  Subcatchment Runoff Summary
  ***************************
  
  ------------------------------------------------------------------------------------------------------------------------------
                            Total      Total      Total      Total     Imperv       Perv      Total       Total     Peak  Runoff
                           Precip      Runon       Evap      Infil     Runoff     Runoff     Runoff      Runoff   Runoff   Coeff
  Subcatchment                 mm         mm         mm         mm         mm         mm         mm    10^6 ltr      LPS
  ------------------------------------------------------------------------------------------------------------------------------
  sub0                      63.51       0.00       0.00       1.00      57.81       3.45      61.26        0.05    34.78   0.965
  sub1                      63.51       0.00       0.00       1.71      55.27       5.28      60.55        0.40   240.95   0.953
  sub10                     63.51       0.00       0.00       1.20      57.14       3.88      61.02        0.67   408.25   0.961
  sub11                     63.51       0.00       0.00       1.18      57.16       3.90      61.06        0.71   450.25   0.961
  sub12                     63.51       0.00       0.00       1.93      54.07       6.33      60.40        0.53   360.26   0.951
  sub14                     63.51       0.00       0.00       1.35      56.53       4.36      60.90        0.58   359.43   0.959
  sub15                     63.51       0.00       0.00       5.33      43.48      13.73      57.21        0.98   569.52   0.901
  sub16                     63.51       0.00       0.00       5.50      41.64      15.46      57.10        0.60   377.91   0.899
  sub17                     63.51       0.00       0.00       5.36      42.26      14.97      57.22        0.49   306.86   0.901
  sub2                      63.51       0.00       0.00       7.61      39.10      15.88      54.99        0.51   253.78   0.866
  sub22                     63.51       0.00       0.00       8.08      35.42      19.23      54.65        3.45  1912.57   0.861
  sub23                     63.51       0.00       0.00       6.58      39.15      16.92      56.07        2.67  1569.44   0.883
  sub3                      63.51       0.00       0.00       8.27      39.06      15.23      54.29        1.22   552.07   0.855
  sub4                      63.51       0.00       0.00       1.91      55.10       5.07      60.18        1.26   606.27   0.948
  sub5                      63.51       0.00       0.00       1.05      57.76       3.40      61.15        0.69   414.18   0.963
  sub60                     63.51       0.00       0.00       1.82      54.68       5.81      60.49        0.79   510.85   0.952
  sub61                     63.51       0.00       0.00       2.63      51.58       8.16      59.74        1.10   710.19   0.941
  sub62                     63.51       0.00       0.00       1.21      57.14       3.87      61.01        1.67  1003.62   0.961
  sub63                     63.51       0.00       0.00       4.88      44.12      13.54      57.66        1.31   804.09   0.908
  sub64                     63.51       0.00       0.00       2.46      52.77       7.06      59.84        1.44   828.04   0.942
  sub65                     63.51       0.00       0.00       2.13      53.99       6.13      60.12        1.66   927.49   0.947
  sub66                     63.51       0.00       0.00       6.06      44.01      12.36      56.37        2.63  1238.22   0.888
  sub67                     63.51       0.00       0.00       1.16      57.18       3.92      61.10        1.14   765.51   0.962
  sub68                     63.51       0.00       0.00       2.18      53.43       6.71      60.14        1.65  1024.82   0.947
  sub69                     63.51       0.00       0.00       1.96      53.87       7.57      61.44        2.27  1233.28   0.967
  sub7                      63.51       0.00       0.00       1.33      56.55       4.39      60.93        0.21   133.20   0.959
  sub70                     63.51       0.00       0.00       6.54      41.75      15.05      56.80        1.64   697.01   0.894
  sub71                     63.51       0.00       0.00       1.24      57.10       3.84      60.93        1.59   895.46   0.960
  sub72                     63.51       0.00       0.00       1.11      57.65       3.34      60.99        0.84   435.69   0.960
  sub8                      63.51       0.00       0.00       1.35      56.54       4.37      60.91        0.39   244.47   0.959
  sub9                      63.51       0.00       0.00       1.35      56.53       4.37      60.90        0.29   182.70   0.959
  
  
  ******************
  Node Depth Summary
  ******************
  
  ---------------------------------------------------------------------------------
                                 Average  Maximum  Maximum  Time of Max    Reported
                                   Depth    Depth      HGL   Occurrence   Max Depth
  Node                 Type       Meters   Meters   Meters  days hr:min      Meters
  ---------------------------------------------------------------------------------
  HS02004478           JUNCTION     0.26     1.59    10.82     0  02:11        1.58
  HS02004479           JUNCTION     0.34     1.69    10.89     0  02:07        1.68
  HS02004480           JUNCTION     0.30     1.66    10.91     0  02:07        1.65
  HS02004770           JUNCTION     0.30     1.42    11.25     0  02:03        1.42
  HS02004777           JUNCTION     0.33     1.48    11.28     0  02:03        1.48
  HS02004785           JUNCTION     0.22     1.49    11.39     0  02:03        1.37
  HS02004788           JUNCTION     0.18     1.42    11.32     0  02:03        1.38
  HS02004792           JUNCTION     0.24     1.60    11.12     0  02:03        1.60
  HS02004799           JUNCTION     0.37     1.76    10.97     0  02:07        1.76
  HS02004802           JUNCTION     0.36     1.80    10.93     0  02:14        1.80
  HS02004807           JUNCTION     0.33     1.92    11.09     0  02:11        1.92
  HS02004817           JUNCTION     0.65     2.37    11.22     0  02:12        2.37
  HS02004824           JUNCTION     0.20     1.94    11.35     0  02:13        1.94
  HS02004830           JUNCTION     0.19     1.97    11.44     0  02:07        1.91
  HS02004837           JUNCTION     0.16     1.92    11.50     0  02:07        1.83
  HS02004842           JUNCTION     0.46     2.22    11.49     0  02:07        2.19
  HS02004848           JUNCTION     0.14     1.92    11.52     0  02:07        1.85
  HS02004852           JUNCTION     0.14     1.94    11.45     0  02:07        1.88
  HS02004856           JUNCTION     0.21     1.96    11.39     0  02:12        1.93
  HS02004862           JUNCTION     0.16     2.00    11.38     0  02:07        1.92
  HS02004870           JUNCTION     0.15     1.92    11.21     0  02:12        1.90
  HS02004876           JUNCTION     0.20     2.00    11.03     0  02:12        1.99
  HS02004881           JUNCTION     0.13     1.75    10.77     0  02:13        1.74
  HS02004901           JUNCTION     0.31     1.42    11.24     0  02:03        1.42
  WS02001211           JUNCTION     0.43     0.73     5.57     0  02:17        0.73
  WS02001212           JUNCTION     0.21     0.50     5.57     0  02:16        0.50
  WS02001213           JUNCTION     0.45     0.81     5.57     0  02:16        0.80
  WS02003059           JUNCTION     0.53     0.88     5.57     0  02:16        0.88
  WS02003060           JUNCTION     0.29     0.63     5.56     0  02:17        0.63
  WS02003066           JUNCTION     0.22     0.45     6.01     0  02:13        0.45
  WS02003067           JUNCTION     0.53     0.88     6.20     0  02:12        0.88
  WS02003069           JUNCTION     0.32     0.72     5.30     0  02:18        0.72
  WS02003072           JUNCTION     0.38     0.76     5.13     0  02:18        0.76
  WS02003073           JUNCTION     0.22     0.48     4.54     0  02:19        0.48
  WS02004138           JUNCTION     0.00     0.00     7.25     0  00:00        0.00
  WS02004139           JUNCTION     0.36     0.66     5.57     0  02:16        0.66
  WS02004401           JUNCTION     0.77     1.89     7.89     0  02:13        1.88
  WS02004402           JUNCTION     0.79     1.83     7.79     0  02:12        1.82
  WS02004403           JUNCTION     0.79     1.75     7.68     0  02:13        1.74
  WS02004404           JUNCTION     0.86     1.76     7.61     0  02:12        1.75
  WS02004405           JUNCTION     0.85     1.70     7.55     0  02:13        1.70
  WS02004406           JUNCTION     0.84     1.59     7.42     0  02:13        1.58
  WS02004407           JUNCTION     0.26     0.94     7.26     0  02:13        0.94
  WS02004409           JUNCTION     0.52     1.40     7.17     0  02:13        1.40
  WS02004410           JUNCTION     0.53     1.31     7.03     0  02:13        1.29
  WS02004411           JUNCTION     0.53     1.21     6.89     0  02:13        1.21
  WS02004412           JUNCTION     0.54     1.11     6.75     0  02:13        1.11
  WS02004413           JUNCTION     0.68     1.15     6.62     0  02:13        1.15
  WS02006109           JUNCTION     0.98     2.64     9.26     0  02:04        2.64
  WS02006110           JUNCTION     0.92     2.40     8.99     0  02:12        2.39
  WS02006111           JUNCTION     0.44     1.77     8.48     0  02:12        1.77
  WS02006112           JUNCTION     0.98     2.68     8.56     0  00:00        2.41
  WS02006113           JUNCTION     0.50     1.85     8.74     0  02:12        1.84
  WS02006115           JUNCTION     0.69     2.00     8.14     0  02:12        1.99
  WS02006116           JUNCTION     0.76     1.99     8.03     0  02:12        1.97
  WS02006228           JUNCTION     1.03     3.03     9.68     0  02:07        3.03
  WS02006229           JUNCTION     1.04     3.23     9.92     0  02:07        3.21
  WS02006230           JUNCTION     0.95     2.65     9.39     0  02:00        2.65
  WS02006231           JUNCTION     0.64     2.19     9.31     0  02:14        2.19
  WS02006232           JUNCTION     0.72     2.18     9.22     0  01:59        2.18
  WS02006234           JUNCTION     0.59     1.96     9.12     0  01:59        1.96
  WS02006235           JUNCTION     0.59     1.93     9.09     0  02:42        1.93
  WS02006238           JUNCTION     0.61     1.96     9.10     0  02:34        1.96
  WS02006239           JUNCTION     0.55     1.78     8.99     0  02:34        1.78
  WS02006240           JUNCTION     0.51     1.63     8.92     0  02:30        1.63
  WS02006242           JUNCTION     0.53     1.55     8.82     0  01:56        1.55
  WS02006243           JUNCTION     0.43     1.39     8.81     0  01:51        1.39
  WS02006245           JUNCTION     0.41     1.33     8.82     0  01:51        1.33
  WS02006247           JUNCTION     0.41     1.29     8.79     0  01:51        1.29
  WS02006248           JUNCTION     0.36     1.10     8.69     0  01:51        1.10
  WS02006249           JUNCTION     0.38     1.09     8.69     0  01:51        1.09
  WS02006251           JUNCTION     0.43     2.21     9.88     0  01:51        2.21
  WS02006252           JUNCTION     0.24     1.50     9.74     0  02:06        1.50
  WS02006253           JUNCTION     0.52     3.02    10.67     0  02:13        3.02
  WS02006256           JUNCTION     0.80     2.17     9.11     0  02:42        2.17
  WS02006280           JUNCTION     0.33     1.74    10.01     0  02:12        1.74
  WS02006284           JUNCTION     0.60     1.95    10.35     0  02:07        1.94
  WS02006287           JUNCTION     0.33     1.74    10.70     0  02:11        1.73
  WSF200               JUNCTION     0.21     0.50     5.73     0  02:14        0.50
  YS02001580           JUNCTION     0.11     1.05     9.59     0  02:02        0.84
  YS02001583           JUNCTION     0.14     1.14     9.64     0  02:02        0.82
  YS02001586           JUNCTION     0.24     1.13     9.30     0  02:02        1.13
  YS02001590           JUNCTION     0.35     1.40     9.26     0  02:02        1.37
  YS02001593           JUNCTION     0.28     1.34     9.20     0  02:02        1.29
  YS02001596           JUNCTION     0.57     1.69     9.11     0  02:02        1.66
  YS02001600           JUNCTION     0.81     1.87     9.00     0  02:02        1.87
  YS02001601           JUNCTION     1.07     2.06     8.90     0  02:02        2.06
  YS02001602           JUNCTION     0.98     1.87     8.77     0  02:02        1.87
  YS02001605           JUNCTION     0.94     1.78     8.68     0  02:08        1.78
  YS02001607           JUNCTION     0.94     1.68     8.53     0  02:34        1.68
  YS02001610           JUNCTION     0.98     1.68     8.48     0  02:04        1.68
  YS02001613           JUNCTION     0.94     1.66     8.50     0  02:08        1.66
  YS02001616           JUNCTION     0.87     1.61     8.52     0  02:06        1.61
  YS02001619           JUNCTION     0.85     1.61     8.54     0  02:06        1.61
  YS02001622           JUNCTION     0.86     1.59     8.49     0  02:06        1.59
  YS02001625           JUNCTION     1.12     1.78     8.38     0  02:04        1.78
  YS02001629           JUNCTION     1.15     1.85     8.40     0  02:05        1.85
  YS02001633           JUNCTION     1.23     2.08     8.53     0  05:51        2.08
  YS02001641           JUNCTION     1.22     2.10     8.54     0  04:10        2.10
  YS02001644           JUNCTION     1.22     1.92     8.35     0  02:05        1.92
  YS02001647           JUNCTION     1.03     1.77     8.38     0  02:11        1.76
  YS02001649           JUNCTION     1.20     2.05     8.44     0  07:59        2.05
  YS02001652           JUNCTION     1.01     1.84     8.44     0  02:11        1.84
  YS02001655           JUNCTION     0.81     1.63     8.48     0  02:11        1.61
  YS02001658           JUNCTION     0.59     1.42     8.56     0  02:06        1.34
  YS02001661           JUNCTION     0.40     1.21     8.61     0  02:11        1.12
  YS02001664           JUNCTION     0.07     0.57     8.50     0  02:12        0.57
  YS02001745           JUNCTION     0.29     0.88     8.39     0  02:13        0.87
  YS02001748           JUNCTION     0.62     1.55     8.63     0  02:07        1.31
  YS02001751           JUNCTION     0.77     1.50     8.38     0  02:12        1.49
  YS02001754           JUNCTION     0.98     1.75     8.36     0  02:13        1.74
  YS02001757           JUNCTION     1.29     2.21     8.47     0  06:03        2.21
  YS02001759           JUNCTION     1.20     2.21     8.57     0  05:51        2.21
  YS02001762           JUNCTION     1.17     2.15     8.55     0  05:51        2.15
  YS02001765           JUNCTION     1.13     2.10     8.55     0  05:51        2.10
  YS02001767           JUNCTION     1.10     2.03     8.52     0  05:42        2.03
  YS02001770           JUNCTION     1.10     1.95     8.44     0  02:34        1.95
  YS02001774           JUNCTION     1.17     2.05     8.47     0  05:51        2.05
  YS02001779           JUNCTION     0.93     1.68     8.37     0  02:04        1.68
  YS02001783           JUNCTION     0.54     1.64     7.79     0  02:06        1.63
  YS02001784           JUNCTION     0.59     1.57     7.64     0  02:06        1.54
  YS02001786           JUNCTION     0.59     1.38     7.41     0  02:06        1.36
  YS02001788           JUNCTION     0.60     1.22     7.20     0  02:06        1.20
  YS02001790           JUNCTION     0.85     1.36     7.01     0  02:06        1.33
  YS02001791           JUNCTION     0.96     1.37     6.84     0  01:47        1.30
  YS02001793           JUNCTION     1.48     2.25     7.08     0  01:45        1.88
  YS02001882           JUNCTION     0.35     1.66     8.37     0  02:06        1.65
  YS02001884           JUNCTION     0.44     1.75     8.37     0  02:12        1.75
  YS02001887           JUNCTION     0.52     1.84     8.37     0  02:12        1.84
  YS02001890           JUNCTION     0.55     1.81     8.32     0  02:06        1.81
  YS02001895           JUNCTION     0.32     1.57     8.32     0  02:06        1.57
  YS02001898           JUNCTION     0.33     1.58     8.31     0  02:06        1.56
  YS02001901           JUNCTION     0.44     1.76     8.37     0  02:06        1.76
  YS02001904           JUNCTION     0.42     1.75     8.38     0  02:06        1.75
  YS02001907           JUNCTION     0.75     1.96     8.25     0  02:06        1.96
  YS02001910           JUNCTION     0.54     1.98     8.48     0  02:06        1.92
  YS02001915           JUNCTION     0.35     1.93     8.65     0  02:06        1.76
  YS02001918           JUNCTION     0.19     1.81     8.88     0  02:06        1.46
  YS02001920           JUNCTION     0.27     2.10     9.10     0  02:06        1.53
  YS02001923           JUNCTION     0.15     2.01     9.27     0  02:06        1.28
  YS02001926           JUNCTION     0.18     1.90     9.35     0  02:06        1.11
  YS02001929           JUNCTION     0.10     1.78     9.47     0  02:06        0.93
  YS02006553           JUNCTION     0.75     2.11     8.39     0  02:06        2.11
  YS02006556           JUNCTION     0.72     2.18     8.49     0  02:06        2.18
  YS02006558           JUNCTION     0.76     2.22     8.49     0  02:06        2.22
  YS02006561           JUNCTION     0.20     1.29     7.95     0  02:06        1.29
  YS02163301           JUNCTION     1.17     2.03     8.55     0  07:59        2.03
  YS02163601           JUNCTION     1.27     2.08     8.48     0  04:10        2.08
  YS02164001           JUNCTION     1.21     2.10     8.56     0  04:10        2.10
  YSB1154              JUNCTION     0.48     1.97    11.03     0  02:12        1.97
  YSB1171              JUNCTION     0.63     1.95    10.85     0  02:07        1.95
  YSB1174              JUNCTION     0.43     1.85    10.96     0  02:12        1.85
  YSB6556              JUNCTION     0.38     1.77    10.93     0  02:12        1.77
  CC-1                 OUTFALL      0.00     0.00     0.00     0  00:00        0.00
  CC-2                 OUTFALL      0.00     0.00     0.00     0  00:00        0.00
  JK-1                 OUTFALL      0.00     0.00     0.00     0  00:00        0.00
  JK-2                 OUTFALL      0.00     0.00     0.00     0  00:00        0.00
  WSC                  OUTFALL      0.22     0.48     1.15     0  02:20        0.48
  CC-storage           STORAGE      1.94     2.30     7.80     0  02:21        2.30
  JK-storage           STORAGE      5.38     5.80     6.60     0  01:50        5.80
  XR-storage           STORAGE     11.77    12.00    10.00     0  01:10       12.00
  
  
  *******************
  Node Inflow Summary
  *******************
  
  -------------------------------------------------------------------------------------------------
                                  Maximum  Maximum                  Lateral       Total        Flow
                                  Lateral    Total  Time of Max      Inflow      Inflow     Balance
                                   Inflow   Inflow   Occurrence      Volume      Volume       Error
  Node                 Type           LPS      LPS  days hr:min    10^6 ltr    10^6 ltr     Percent
  -------------------------------------------------------------------------------------------------
  HS02004478           JUNCTION      0.00  2305.50     0  02:12           0         8.7      -0.011
  HS02004479           JUNCTION      0.00   414.82     0  02:07           0       0.861       0.097
  HS02004480           JUNCTION      0.00  2074.37     0  02:06           0        6.53       0.030
  HS02004770           JUNCTION   1569.44  1569.44     0  02:14        2.67        2.92       0.097
  HS02004777           JUNCTION      0.03   727.95     0  02:03    0.000864        1.91       0.273
  HS02004785           JUNCTION      0.15   752.62     0  02:03     0.00432        1.91       0.032
  HS02004788           JUNCTION    571.19   853.74     0  02:03        1.03        2.94      -0.010
  HS02004792           JUNCTION   1912.85  2724.75     0  02:14        3.46         6.4       0.008
  HS02004799           JUNCTION    359.43  1721.76     0  02:05        0.58        5.87       0.047
  HS02004802           JUNCTION      0.00  1233.19     0  02:16           0         2.3       0.168
  HS02004807           JUNCTION    450.25  1471.85     0  02:14        0.71         2.4       0.168
  HS02004817           JUNCTION      0.60  1027.60     0  02:14      0.0173        1.75       0.948
  HS02004824           JUNCTION    606.32  1026.38     0  02:14        1.26        1.99       0.038
  HS02004830           JUNCTION      0.15   598.35     0  02:04     0.00432       0.994       0.096
  HS02004837           JUNCTION    414.60   787.48     0  02:07       0.856        1.33       0.017
  HS02004842           JUNCTION      0.00   787.13     0  02:07           0       0.821       1.581
  HS02004848           JUNCTION    552.07  1055.11     0  02:07        1.22        1.87      -0.029
  HS02004852           JUNCTION      0.00  1016.48     0  02:07           0        1.72       0.024
  HS02004856           JUNCTION    182.70  1080.43     0  02:07       0.293        2.01       0.031
  HS02004862           JUNCTION    253.98  1192.45     0  02:07       0.518        2.53       0.011
  HS02004870           JUNCTION    244.47  1273.36     0  02:06       0.389        2.92       0.004
  HS02004876           JUNCTION    240.95  1459.62     0  02:13       0.403        3.32       0.014
  HS02004881           JUNCTION    133.20  1593.80     0  02:13       0.205        3.53       0.005
  HS02004901           JUNCTION    377.91   639.33     0  02:13       0.598       0.931       0.179
  WS02001211           JUNCTION      7.35    91.61     0  01:55       0.212       0.293       4.467
  WS02001212           JUNCTION      0.00   108.45     0  01:54           0       0.306       0.944
  WS02001213           JUNCTION      0.00   137.37     0  01:54           0       0.348       2.464
  WS02003059           JUNCTION      0.00   167.31     0  01:53           0       0.415       4.197
  WS02003060           JUNCTION     16.53  1328.72     0  02:14       0.476        8.02       0.060
  WS02003066           JUNCTION      0.00  1310.60     0  02:13           0        7.24       0.019
  WS02003067           JUNCTION      0.00  1310.22     0  02:14           0        7.24       0.060
  WS02003069           JUNCTION      0.32  1321.58     0  02:17     0.00922        7.89       0.063
  WS02003072           JUNCTION      0.00  1320.90     0  02:18           0        7.88       0.102
  WS02003073           JUNCTION      1.82  1322.38     0  02:18      0.0524        7.93       0.088
  WS02004138           JUNCTION      0.00     0.00     0  00:00           0           0       0.000 ltr
  WS02004139           JUNCTION      0.32    53.55     0  01:55     0.00924      0.0453      23.615
  WS02004401           JUNCTION      0.00  1310.22     0  02:13           0        7.35       0.155
  WS02004402           JUNCTION      0.00  1309.91     0  02:13           0        7.34       0.149
  WS02004403           JUNCTION      0.00  1311.02     0  02:13           0        7.33       0.145
  WS02004404           JUNCTION      0.16  1312.33     0  02:13     0.00467        7.33       0.116
  WS02004405           JUNCTION      0.04  1314.16     0  02:13      0.0011        7.32       0.183
  WS02004406           JUNCTION      0.00  1314.18     0  02:12           0         7.3       0.294
  WS02004407           JUNCTION      0.00  1315.16     0  02:12           0        7.28       0.020
  WS02004409           JUNCTION      0.00  1310.38     0  02:13           0        7.28       0.042
  WS02004410           JUNCTION      0.00  1310.78     0  02:14           0        7.27       0.064
  WS02004411           JUNCTION      0.00  1310.11     0  02:14           0        7.27       0.082
  WS02004412           JUNCTION      0.00  1310.22     0  02:13           0        7.26       0.108
  WS02004413           JUNCTION      0.00  1310.32     0  02:13           0        7.26       0.186
  WS02006109           JUNCTION      1.23  1308.01     0  00:00      0.0354         7.1       0.163
  WS02006110           JUNCTION      0.00  1121.50     0  02:29           0        6.82      -0.514
  WS02006111           JUNCTION      0.00  1176.04     0  00:00           0        6.84      -0.550
  WS02006112           JUNCTION    306.86  2307.30     0  00:00       0.491        7.37      -0.002
  WS02006113           JUNCTION      0.00  1121.45     0  02:29           0        6.81      -0.666
  WS02006115           JUNCTION      0.00  2152.75     0  00:00           0        7.36       0.058
  WS02006116           JUNCTION      0.00  1310.07     0  02:12           0        7.35       0.034
  WS02006228           JUNCTION      0.00  1289.41     0  02:12           0        7.04       0.090
  WS02006229           JUNCTION      0.00  2306.48     0  02:12           0         9.4       0.104
  WS02006230           JUNCTION     10.28  1026.76     0  02:12       0.296         3.1       0.115
  WS02006231           JUNCTION      0.00   453.44     0  02:30           0        1.87      -0.082
  WS02006232           JUNCTION      0.00   453.47     0  02:21           0        1.84       0.090
  WS02006234           JUNCTION      0.00   453.27     0  02:30           0        1.82      -0.011
  WS02006235           JUNCTION      0.00   402.76     0  02:34           0        1.68      -0.008
  WS02006238           JUNCTION      0.00   401.99     0  02:04           0        1.68      -0.036
  WS02006239           JUNCTION      0.00   401.13     0  02:04           0        1.68      -0.026
  WS02006240           JUNCTION      0.00   400.88     0  02:04           0        1.68       0.003
  WS02006242           JUNCTION      0.00   400.97     0  02:04           0        1.68       0.047
  WS02006243           JUNCTION      0.00   278.54     0  02:06           0        1.33      -0.033
  WS02006245           JUNCTION      0.00   278.45     0  02:06           0        1.33       0.181
  WS02006247           JUNCTION      0.00   278.79     0  02:06           0        1.33      -0.001
  WS02006248           JUNCTION      0.00   340.34     0  02:06           0        1.57      -0.020
  WS02006249           JUNCTION      0.00  1361.79     0  02:13           0        3.47       0.015
  WS02006251           JUNCTION      0.08  1630.33     0  02:13     0.00222        3.58      -0.026
  WS02006252           JUNCTION      0.00   269.43     0  02:13           0       0.113       0.685
  WS02006253           JUNCTION     34.78  1629.27     0  02:13      0.0496        3.58      -0.004
  WS02006256           JUNCTION      0.00    15.53     0  01:32           0     0.00109     267.506
  WS02006280           JUNCTION      0.00  2304.97     0  02:12           0        8.69       0.007
  WS02006284           JUNCTION      0.10  2304.98     0  02:12     0.00275        8.69      -0.005
  WS02006287           JUNCTION      0.00  2309.47     0  02:12           0        8.69       0.010
  WSF200               JUNCTION      0.00  1310.77     0  02:14           0        7.24       0.007
  YS02001580           JUNCTION      0.00    76.79     0  02:02           0       0.004       1.018
  YS02001583           JUNCTION      0.00   140.59     0  02:02           0      0.0152      -4.987
  YS02001586           JUNCTION    697.01   697.01     0  02:15        1.64        1.65       0.062
  YS02001590           JUNCTION      0.00   318.81     0  02:34           0        1.32       0.028
  YS02001593           JUNCTION      0.00   318.31     0  02:34           0        1.32       0.030
  YS02001596           JUNCTION      0.00   318.25     0  02:19           0        1.35       0.269
  YS02001600           JUNCTION      0.00   318.10     0  02:20           0        1.37       0.491
  YS02001601           JUNCTION   1233.28  1550.80     0  02:14        2.27        3.64       0.235
  YS02001602           JUNCTION      0.00   500.70     0  02:01           0         2.3       0.365
  YS02001605           JUNCTION      0.00   500.69     0  02:01           0        2.13       0.640
  YS02001607           JUNCTION      0.00   500.26     0  02:01           0        2.14       0.994
  YS02001610           JUNCTION      0.00   666.78     0  02:15           0        2.33       0.955
  YS02001613           JUNCTION      0.00   498.28     0  02:01           0        1.89       1.276
  YS02001616           JUNCTION      0.00   499.54     0  02:02           0        1.92       1.156
  YS02001619           JUNCTION   1238.22  1238.22     0  02:15        2.63        4.36       0.505
  YS02001622           JUNCTION      0.00   925.13     0  02:13           0        4.14       0.673
  YS02001625           JUNCTION      0.00  1312.85     0  02:14           0        4.35       1.017
  YS02001629           JUNCTION      0.00   912.00     0  02:02           0        2.87       0.580
  YS02001633           JUNCTION    927.69  1209.58     0  02:03        1.66        4.22       0.715
  YS02001641           JUNCTION      0.00  1209.95     0  02:03           0        3.88       0.428
  YS02001644           JUNCTION    828.08  1525.52     0  02:04        1.44         5.3       0.422
  YS02001647           JUNCTION      0.00  1526.24     0  02:04           0        4.51       0.566
  YS02001649           JUNCTION      0.00  1615.30     0  02:05           0        5.84       0.600
  YS02001652           JUNCTION      0.00   830.40     0  02:13           0        1.46       1.666
  YS02001655           JUNCTION      0.15   830.19     0  02:13     0.00443        1.49       1.400
  YS02001658           JUNCTION      0.00   829.89     0  02:13           0        1.51       1.083
  YS02001661           JUNCTION      0.00   828.69     0  02:13           0        1.41       0.435
  YS02001664           JUNCTION    804.09   804.09     0  02:14        1.31        1.31       0.018
  YS02001745           JUNCTION    510.86   510.86     0  02:13       0.795       0.873       0.577
  YS02001748           JUNCTION      0.04   520.68     0  02:13      0.0013       0.962       1.631
  YS02001751           JUNCTION      0.01   520.88     0  02:13    0.000317       0.964       2.282
  YS02001754           JUNCTION      0.26   521.81     0  02:13     0.00749       0.955       2.630
  YS02001757           JUNCTION      0.00  2687.40     0  02:08           0        8.95       1.021
  YS02001759           JUNCTION    710.23  1109.79     0  02:12         1.1        2.45       0.945
  YS02001762           JUNCTION      0.00   618.86     0  02:08           0        1.36       1.561
  YS02001765           JUNCTION      0.00   619.68     0  02:09           0        1.37       1.771
  YS02001767           JUNCTION      0.54   619.74     0  02:09      0.0154         1.4       2.682
  YS02001770           JUNCTION   1003.77  1003.77     0  02:14        1.68        1.76       1.829
  YS02001774           JUNCTION      0.00   635.86     0  02:13           0       0.414       6.508
  YS02001779           JUNCTION      0.01   634.76     0  02:14    0.000144       0.351       3.894
  YS02001783           JUNCTION      0.00   979.96     0  02:12           0        3.79       0.190
  YS02001784           JUNCTION      1.06   981.26     0  02:12      0.0305        3.82       0.276
  YS02001786           JUNCTION      0.06   982.06     0  02:12     0.00162        3.81       0.354
  YS02001788           JUNCTION      0.07   982.78     0  02:12     0.00204         3.8       0.363
  YS02001790           JUNCTION      0.15   983.88     0  02:12     0.00446        3.79       0.456
  YS02001791           JUNCTION      0.00   984.55     0  02:12           0        3.77       0.358
  YS02001793           JUNCTION      0.00   985.62     0  02:12           0        3.76       0.469
  YS02001882           JUNCTION      0.00    33.96     0  02:04           0      0.0126       5.691
  YS02001884           JUNCTION      0.00    70.86     0  02:03           0      0.0484       5.538
  YS02001887           JUNCTION    765.96   767.19     0  02:13        1.15        1.18       0.380
  YS02001890           JUNCTION      0.00   766.44     0  02:13           0        1.14       0.450
  YS02001895           JUNCTION      0.00   517.37     0  02:17           0        1.07       0.152
  YS02001898           JUNCTION      0.00   517.80     0  02:17           0        1.06       0.024
  YS02001901           JUNCTION      0.00   517.26     0  02:15           0        1.07       0.298
  YS02001904           JUNCTION      0.00   517.30     0  02:15           0        1.07       0.276
  YS02001907           JUNCTION      0.00  1908.40     0  02:13           0        3.59       0.501
  YS02001910           JUNCTION      0.00  1342.20     0  02:13           0        2.51       0.288
  YS02001915           JUNCTION    895.48  1341.66     0  02:13        1.59        2.56       0.068
  YS02001918           JUNCTION      0.00   451.31     0  02:13           0        0.99       0.029
  YS02001920           JUNCTION      2.87   451.72     0  02:13      0.0827       0.974       0.108
  YS02001923           JUNCTION      0.04   451.01     0  02:13     0.00109       0.874      -0.031
  YS02001926           JUNCTION      0.05   529.58     0  02:06      0.0015       0.852      -0.033
  YS02001929           JUNCTION    435.69   435.69     0  02:14       0.839        0.84      -0.075
  YS02006553           JUNCTION      0.00   679.17     0  02:31           0        2.17       0.554
  YS02006556           JUNCTION      0.00   678.60     0  02:31           0        2.18       0.369
  YS02006558           JUNCTION   1025.70  1025.70     0  02:14        1.68        3.83       0.099
  YS02006561           JUNCTION      0.00   981.12     0  02:12           0        3.79      -0.012
  YS02163301           JUNCTION      0.00   893.31     0  02:02           0        2.84       0.803
  YS02163601           JUNCTION      0.11  1210.30     0  02:03     0.00317        3.92       0.708
  YS02164001           JUNCTION      0.00  1211.09     0  02:03           0        3.88       0.299
  YSB1154              JUNCTION    414.18   414.18     0  02:14       0.693       0.694       0.210
  YSB1171              JUNCTION      0.00   993.79     0  02:14           0        1.32       0.475
  YSB1174              JUNCTION    360.26   360.26     0  02:13       0.528       0.528       0.234
  YSB6556              JUNCTION      0.00   414.11     0  02:14           0       0.694       0.164
  CC-1                 OUTFALL       0.00     0.00     0  00:00           0           0       0.000 ltr
  CC-2                 OUTFALL       0.00     0.00     0  00:00           0           0       0.000 ltr
  JK-1                 OUTFALL       0.00     0.00     0  00:00           0           0       0.000 ltr
  JK-2                 OUTFALL       0.00     0.00     0  00:00           0           0       0.000 ltr
  WSC                  OUTFALL       0.00  1321.92     0  02:20           0        7.92       0.000
  CC-storage           STORAGE       0.00  2687.70     0  02:08           0        10.8       0.431
  JK-storage           STORAGE       0.00   987.21     0  02:12           0        3.89       0.519
  XR-storage           STORAGE     200.00   200.00     0  00:00        5.76        6.36       0.010
  
  
  **********************
  Node Surcharge Summary
  **********************
  
  Surcharging occurs when water rises above the top of the highest conduit.
  ---------------------------------------------------------------------
                                               Max. Height   Min. Depth
                                   Hours       Above Crown    Below Rim
  Node                 Type      Surcharged         Meters       Meters
  ---------------------------------------------------------------------
  HS02004478           JUNCTION        0.48          0.669        0.271
  HS02004479           JUNCTION        0.62          0.890        0.160
  HS02004480           JUNCTION        0.66          0.955        0.145
  HS02004770           JUNCTION        0.56          0.720        0.000
  HS02004777           JUNCTION        0.57          0.780        0.000
  HS02004785           JUNCTION        0.51          0.790        0.000
  HS02004788           JUNCTION        0.50          0.720        0.000
  HS02004792           JUNCTION        0.63          0.900        0.000
  HS02004799           JUNCTION        0.76          1.060        0.000
  HS02004802           JUNCTION        0.67          1.093        0.117
  HS02004807           JUNCTION        0.65          1.220        0.000
  HS02004817           JUNCTION        1.27          1.674        0.066
  HS02004824           JUNCTION        0.50          1.245        0.065
  HS02004830           JUNCTION        0.47          1.267        0.063
  HS02004837           JUNCTION        0.43          1.219        0.121
  HS02004842           JUNCTION        0.57          1.520        0.000
  HS02004848           JUNCTION        0.38          1.223        0.147
  HS02004852           JUNCTION        0.40          1.243        0.177
  HS02004856           JUNCTION        0.37          1.191        0.109
  HS02004862           JUNCTION        0.42          1.300        0.000
  HS02004870           JUNCTION        0.42          1.218        0.182
  HS02004876           JUNCTION        0.48          1.295        0.265
  HS02004881           JUNCTION        0.45          1.046        0.404
  HS02004901           JUNCTION        0.56          0.720        0.000
  WS02004401           JUNCTION        1.38          0.893        0.767
  WS02004402           JUNCTION        1.40          0.831        0.909
  WS02004403           JUNCTION        1.40          0.752        1.278
  WS02004404           JUNCTION        1.50          0.760        2.020
  WS02004405           JUNCTION        1.48          0.702        2.098
  WS02004406           JUNCTION        1.46          0.587        1.863
  WS02004409           JUNCTION        1.00          0.397        1.963
  WS02004410           JUNCTION        0.96          0.306        2.234
  WS02004411           JUNCTION        0.88          0.212        2.318
  WS02004412           JUNCTION        0.79          0.112        2.198
  WS02004413           JUNCTION        1.23          0.149        2.051
  WS02006109           JUNCTION        1.74          1.820        0.000
  WS02006110           JUNCTION        1.58          1.490        0.360
  WS02006111           JUNCTION        1.21          0.964        0.906
  WS02006112           JUNCTION        1.64          1.680        0.000
  WS02006113           JUNCTION        1.22          1.048        0.882
  WS02006115           JUNCTION        1.32          0.990        1.260
  WS02006116           JUNCTION        1.33          0.926        1.364
  WS02006228           JUNCTION        1.74          2.200        0.000
  WS02006229           JUNCTION        0.93          1.049        0.021
  WS02006230           JUNCTION        1.45          1.570        0.000
  WS02006231           JUNCTION        1.46          1.480        0.050
  WS02006232           JUNCTION        1.55          1.480        0.000
  WS02006234           JUNCTION        1.44          1.240        0.000
  WS02006235           JUNCTION        1.45          1.217        0.073
  WS02006238           JUNCTION        1.46          1.238        0.192
  WS02006239           JUNCTION        1.41          1.043        0.247
  WS02006240           JUNCTION        1.38          0.919        0.471
  WS02006242           JUNCTION        1.39          0.820        0.000
  WS02006243           JUNCTION        1.32          0.685        0.085
  WS02006245           JUNCTION        1.29          0.622        0.228
  WS02006247           JUNCTION        1.29          0.577        0.183
  WS02006248           JUNCTION        1.26          0.380        0.000
  WS02006249           JUNCTION        1.27          0.390        0.000
  WS02006251           JUNCTION        1.15          1.180        0.000
  WS02006252           JUNCTION        1.20          1.100        0.000
  WS02006253           JUNCTION        1.18          1.984        0.496
  WS02006256           JUNCTION        3.83          1.873        0.177
  WS02006280           JUNCTION        0.78          0.692        0.088
  WS02006284           JUNCTION        0.69          0.668        0.132
  WS02006287           JUNCTION        0.59          0.742        0.148
  YS02001580           JUNCTION        0.61          0.450        0.000
  YS02001583           JUNCTION        0.62          0.500        0.000
  YS02001586           JUNCTION        0.85          0.510        0.000
  YS02001590           JUNCTION        0.95          0.750        0.000
  YS02001593           JUNCTION        0.96          0.722        0.118
  YS02001596           JUNCTION        1.12          0.957        0.113
  YS02001600           JUNCTION        2.64          1.190        0.000
  YS02001601           JUNCTION        6.29          1.440        0.000
  YS02001602           JUNCTION        6.23          1.270        0.000
  YS02001605           JUNCTION        6.20          1.180        0.000
  YS02001607           JUNCTION        1.26          0.680        0.000
  YS02001610           JUNCTION        4.12          0.680        0.000
  YS02001613           JUNCTION        1.28          0.660        0.040
  YS02001616           JUNCTION        1.08          0.610        0.000
  YS02001619           JUNCTION        1.05          0.610        0.000
  YS02001622           JUNCTION        1.07          0.586        0.034
  YS02001625           JUNCTION        6.01          0.780        0.000
  YS02001629           JUNCTION        1.04          0.470        0.000
  YS02001633           JUNCTION        6.02          1.060        0.000
  YS02001641           JUNCTION        5.99          1.100        0.000
  YS02001644           JUNCTION        5.98          0.920        0.000
  YS02001647           JUNCTION        5.94          0.769        0.131
  YS02001649           JUNCTION        5.95          1.050        0.000
  YS02001652           JUNCTION        5.93          0.814        0.316
  YS02001655           JUNCTION        1.01          0.635        0.565
  YS02001658           JUNCTION        0.50          0.420        0.880
  YS02001661           JUNCTION        0.04          0.138        1.252
  YS02001748           JUNCTION        0.40          0.469        0.721
  YS02001751           JUNCTION        0.93          0.498        0.702
  YS02001754           JUNCTION        5.92          0.699        0.451
  YS02001757           JUNCTION        5.95          1.210        0.000
  YS02001759           JUNCTION        5.94          1.210        0.000
  YS02001762           JUNCTION        5.94          1.150        0.000
  YS02001765           JUNCTION        5.94          1.100        0.000
  YS02001767           JUNCTION        5.93          1.030        0.000
  YS02001770           JUNCTION        5.93          0.920        0.000
  YS02001774           JUNCTION        5.93          1.050        0.000
  YS02001779           JUNCTION        5.85          0.680        0.000
  YS02001783           JUNCTION        0.82          0.844        0.756
  YS02001784           JUNCTION        0.83          0.771        0.719
  YS02001786           JUNCTION        0.82          0.582        0.848
  YS02001788           JUNCTION        0.82          0.421        1.059
  YS02001790           JUNCTION        6.18          0.562        0.595
  YS02001791           JUNCTION        6.20          0.575        1.345
  YS02001793           JUNCTION        6.23          1.248        1.352
  YS02001882           JUNCTION        0.56          0.658        0.172
  YS02001884           JUNCTION        0.57          0.692        0.178
  YS02001887           JUNCTION        0.61          0.785        0.165
  YS02001890           JUNCTION        0.62          0.760        0.000
  YS02001895           JUNCTION        0.55          0.572        0.178
  YS02001898           JUNCTION        0.54          0.545        0.195
  YS02001901           JUNCTION        0.60          0.763        0.107
  YS02001904           JUNCTION        0.59          0.749        0.101
  YS02001907           JUNCTION        0.83          0.950        0.000
  YS02001910           JUNCTION        0.65          0.978        0.122
  YS02001915           JUNCTION        0.56          0.929        0.071
  YS02001918           JUNCTION        0.46          0.810        0.000
  YS02001920           JUNCTION        0.48          1.095        0.045
  YS02001923           JUNCTION        0.07          0.797        0.023
  YS02001926           JUNCTION        0.12          0.900        0.000
  YS02001929           JUNCTION        0.01          0.780        0.000
  YS02006553           JUNCTION        0.85          1.105        0.085
  YS02006556           JUNCTION        0.74          1.143        0.207
  YS02006558           JUNCTION        0.73          1.123        0.277
  YS02006561           JUNCTION        0.50          0.488        0.662
  YS02163301           JUNCTION        6.02          1.030        0.000
  YS02163601           JUNCTION        6.04          1.080        0.000
  YS02164001           JUNCTION        6.00          1.100        0.000
  YSB1154              JUNCTION        0.89          1.273        0.127
  YSB1171              JUNCTION        0.90          1.100        0.000
  YSB1174              JUNCTION        0.80          1.150        0.100
  YSB6556              JUNCTION        0.73          1.065        0.035
  
  
  *********************
  Node Flooding Summary
  *********************
  
  Flooding refers to all water that overflows a node, whether it ponds or not.
  --------------------------------------------------------------------------
                                                             Total   Maximum
                                 Maximum   Time of Max       Flood    Ponded
                        Hours       Rate    Occurrence      Volume     Depth
  Node                 Flooded       LPS   days hr:min    10^6 ltr    Meters
  --------------------------------------------------------------------------
  HS02004770              0.38   1065.20      0  02:14       0.673     0.000
  HS02004777              0.01     86.02      0  02:03       0.000     0.000
  HS02004785              0.01    104.18      0  02:03       0.000     0.000
  HS02004788              0.01    160.50      0  02:03       0.001     0.000
  HS02004792              0.37   1582.38      0  02:14       1.112     0.000
  HS02004799              0.19    215.73      0  02:12       0.086     0.000
  HS02004807              0.09    240.51      0  02:14       0.045     0.000
  HS02004842              0.01     25.29      0  02:07       0.000     0.000
  HS02004862              0.01    265.95      0  02:07       0.000     0.000
  HS02004901              0.45    639.32      0  02:13       0.688     0.000
  WS02006109              0.41    288.09      0  02:13       0.248     0.000
  WS02006112              0.01   1153.65      0  00:00       0.035     0.000
  WS02006228              0.01      1.16      0  02:07       0.000     0.000
  WS02006230              0.70    574.03      0  02:12       0.946     0.000
  WS02006232              0.17      0.80      0  02:34       0.000     0.000
  WS02006234              0.74     55.61      0  02:34       0.137     0.000
  WS02006242              0.84    123.33      0  02:04       0.345     0.000
  WS02006248              1.10    339.85      0  02:06       1.177     0.000
  WS02006249              1.17   1300.80      0  02:13       2.840     0.000
  WS02006251              0.01     82.75      0  01:51       0.000     0.000
  WS02006252              0.20    268.84      0  02:13       0.108     0.000
  YS02001580              0.01     10.47      0  02:02       0.000     0.000
  YS02001583              0.01     66.50      0  02:02       0.000     0.000
  YS02001586              0.47    379.24      0  02:15       0.316     0.000
  YS02001590              0.01      3.33      0  02:02       0.000     0.000
  YS02001600              0.01      2.44      0  02:02       0.000     0.000
  YS02001601              0.74   1152.70      0  02:14       1.333     0.000
  YS02001602              0.75     62.06      0  02:22       0.156     0.000
  YS02001605              0.01      0.56      0  07:59       0.000     0.000
  YS02001607              0.01      0.49      0  02:34       0.000     0.000
  YS02001610              0.59    666.36      0  02:15       0.641     0.000
  YS02001616              0.01      0.78      0  02:06       0.000     0.000
  YS02001619              0.01      2.04      0  02:08       0.000     0.000
  YS02001625              0.70   1312.81      0  02:14       1.694     0.000
  YS02001629              0.05     21.33      0  02:05       0.001     0.000
  YS02001633              0.01      2.59      0  07:59       0.000     0.000
  YS02001641              0.01      5.22      0  07:59       0.000     0.000
  YS02001644              0.34   1285.14      0  02:14       0.758     0.000
  YS02001649              0.01      4.73      0  07:59       0.000     0.000
  YS02001757              0.01      3.06      0  06:03       0.000     0.000
  YS02001759              0.01      3.40      0  05:51       0.000     0.000
  YS02001762              0.01      2.64      0  05:51       0.000     0.000
  YS02001765              0.01      3.22      0  05:51       0.000     0.000
  YS02001767              0.01      3.00      0  05:51       0.000     0.000
  YS02001770              0.01     15.82      0  02:34       0.000     0.000
  YS02001774              0.01      3.54      0  05:51       0.000     0.000
  YS02001779              0.29    634.69      0  02:14       0.315     0.000
  YS02001890              0.17    251.32      0  02:13       0.071     0.000
  YS02001907              0.40   1907.59      0  02:13       1.412     0.000
  YS02001918              0.01    101.39      0  02:06       0.001     0.000
  YS02001926              0.01     22.44      0  02:06       0.000     0.000
  YS02001929              0.01    210.32      0  02:06       0.001     0.000
  YS02163301              0.01      3.62      0  07:59       0.000     0.000
  YS02163601              0.01      3.81      0  07:59       0.000     0.000
  YS02164001              0.01      9.22      0  07:59       0.000     0.000
  YSB1171                 0.27    993.75      0  02:14       0.562     0.000
  CC-storage              3.75   1907.07      0  02:21       4.286     0.000
  JK-storage              5.89    986.10      0  02:12       3.578     0.000
  XR-storage              6.83    200.00      0  01:10       4.920     0.000
  
  
  **********************
  Storage Volume Summary
  **********************
  
  --------------------------------------------------------------------------------------------------
                         Average     Avg  Evap Exfil       Maximum     Max    Time of Max    Maximum
                          Volume    Pcnt  Pcnt  Pcnt        Volume    Pcnt     Occurrence    Outflow
  Storage Unit           1000 m3    Full  Loss  Loss       1000 m3    Full    days hr:min        LPS
  --------------------------------------------------------------------------------------------------
  CC-storage               5.414      84     0     0         6.410     100       0  02:21     118.34
  JK-storage               0.270      93     0     0         0.291     100       0  01:50      61.10
  XR-storage               1.412      98     0     0         1.440     100       0  01:10       0.00
  
  
  ***********************
  Outfall Loading Summary
  ***********************
  
  -----------------------------------------------------------
                         Flow       Avg       Max       Total
                         Freq      Flow      Flow      Volume
  Outfall Node           Pcnt       LPS       LPS    10^6 ltr
  -----------------------------------------------------------
  CC-1                   0.00      0.00      0.00       0.000
  CC-2                   0.00      0.00      0.00       0.000
  JK-1                   0.00      0.00      0.00       0.000
  JK-2                   0.00      0.00      0.00       0.000
  WSC                   99.99    422.81   1321.92       7.920
  -----------------------------------------------------------
  System                20.00    422.81   1321.92       7.920
  
  
  ********************
  Link Flow Summary
  ********************
  
  -----------------------------------------------------------------------------
                                 Maximum  Time of Max   Maximum    Max/    Max/
                                  |Flow|   Occurrence   |Veloc|    Full    Full
  Link                 Type          LPS  days hr:min     m/sec    Flow   Depth
  -----------------------------------------------------------------------------
  1                    CONDUIT   1321.92     0  02:20      3.58    0.46    0.48
  HS02004478WS02006287 CONDUIT   2309.47     0  02:12      2.61    0.65    1.00
  HS02004479HS02004480 CONDUIT    416.29     0  02:07      0.59    0.40    1.00
  HS02004480HS02004478 CONDUIT   2070.46     0  02:06      2.96    8.72    1.00
  HS02004770HS02004777 CONDUIT    727.92     0  02:03      1.04    1.33    1.00
  HS02004777HS02004785 CONDUIT    752.47     0  02:03      1.13    0.93    1.00
  HS02004785HS02004788 CONDUIT    643.25     0  02:03      1.35    4.85    1.00
  HS02004788HS02004792 CONDUIT    820.92     0  02:04      1.45    0.54    1.00
  HS02004792HS02004799 CONDUIT   1566.92     0  02:04      2.24    0.96    1.00
  HS02004799HS02004480 CONDUIT   1720.38     0  02:05      2.46    2.17    1.00
  HS02004802HS02004478 CONDUIT   1233.74     0  02:16      1.76    1.09    1.00
  HS02004807HS02004802 CONDUIT   1233.19     0  02:16      1.76    2.35    1.00
  HS02004817HS02004807 CONDUIT   1027.71     0  02:14      1.47    0.61    1.00
  HS02004817HS02004824 CONDUIT   1027.00     0  02:14      1.47    0.46    1.00
  HS02004824HS02004830 CONDUIT    598.20     0  02:04      0.87    0.78    1.00
  HS02004830HS02004837 CONDUIT    605.92     0  02:04      0.94    0.60    1.00
  HS02004837HS02004842 CONDUIT    787.13     0  02:07      1.12    0.47    1.00
  HS02004842HS02004848 CONDUIT    787.40     0  02:07      1.23    0.46    1.00
  HS02004848HS02004852 CONDUIT   1016.48     0  02:07      1.57    1.15    1.00
  HS02004852HS02004856 CONDUIT    983.86     0  02:07      1.46    1.13    1.00
  HS02004856HS02004862 CONDUIT   1069.38     0  02:07      1.69    1.07    1.00
  HS02004862HS02004870 CONDUIT   1151.02     0  02:06      1.93    1.24    1.00
  HS02004870HS02004876 CONDUIT   1221.03     0  02:13      1.92    0.81    1.00
  HS02004876HS02004881 CONDUIT   1460.84     0  02:13      2.61   15.54    1.00
  HS02004881HS02006253 CONDUIT   1594.72     0  02:13      2.75    0.31    1.00
  HS02004901HS02004770 CONDUIT    265.79     0  02:26      0.38    1.00    1.00
  WS02001211WS02001212 CONDUIT     84.27     0  01:55      0.25    0.06    0.62
  WS02001212WS02001213 CONDUIT    108.45     0  01:54      0.58    0.17    0.49
  WS02001213WS02003059 CONDUIT    137.37     0  01:54      0.23    0.23    0.83
  WS02003059WS02003060 CONDUIT    167.31     0  01:53      0.55    0.11    0.75
  WS02003060WS02003069 CONDUIT   1321.26     0  02:17      2.02    0.52    0.56
  WS02003066WSF200     CONDUIT   1310.77     0  02:14      3.41    0.22    0.37
  WS02003067WS02003066 CONDUIT   1310.60     0  02:13      2.04    0.42    0.55
  WS02003069WS02003072 CONDUIT   1320.90     0  02:18      1.81    0.64    0.61
  WS02003072WS02003073 CONDUIT   1320.55     0  02:18      1.95    2.85    0.58
  WS02004138WS02004139 CONDUIT      0.00     0  00:00      0.00    0.00    0.31
  WS02004139WS02001211 CONDUIT     53.23     0  01:55      0.18    0.07    0.54
  WS02004401WS02004402 CONDUIT   1309.91     0  02:13      2.07    1.57    1.00
  WS02004402WS02004403 CONDUIT   1311.02     0  02:13      1.84    1.88    1.00
  WS02004403WS02004404 CONDUIT   1312.17     0  02:13      1.68    0.95    1.00
  WS02004404WS02004405 CONDUIT   1314.12     0  02:13      1.86   12.87    1.00
  WS02004405WS02004406 CONDUIT   1314.18     0  02:12      1.80    2.59    1.00
  WS02004406WS02004407 CONDUIT   1315.16     0  02:12      1.74    0.59    0.97
  WS02004407WS02004409 CONDUIT   1310.38     0  02:13      1.75    0.46    0.97
  WS02004409WS02004410 CONDUIT   1310.78     0  02:14      1.67    1.70    1.00
  WS02004410WS02004411 CONDUIT   1310.11     0  02:14      1.67    1.79    1.00
  WS02004411WS02004412 CONDUIT   1310.22     0  02:13      1.67    1.86    1.00
  WS02004412WS02004413 CONDUIT   1310.32     0  02:13      1.67    0.88    1.00
  WS02004413WS02003067 CONDUIT   1310.22     0  02:14      2.02    0.56    0.77
  WS02006109WS02006110 CONDUIT   1306.78     0  00:00      3.15    2.51    1.00
  WS02006110WS02006113 CONDUIT   1121.45     0  02:29      2.23    1.02    1.00
  WS02006111WS02006112 CONDUIT   2307.30     0  00:00      9.18    1.10    1.00
  WS02006112WS02006115 CONDUIT   2152.75     0  00:00      2.85    1.27    1.00
  WS02006113WS02006111 CONDUIT   1176.04     0  00:00      2.62    1.41    1.00
  WS02006115WS02006116 CONDUIT   1310.07     0  02:12      1.81    1.68    1.00
  WS02006116WS02004401 CONDUIT   1310.22     0  02:13      2.21    1.81    1.00
  WS02006228WS02006109 CONDUIT   1288.75     0  02:12      2.56    5.63    1.00
  WS02006229WS02006228 CONDUIT   1289.41     0  02:12      2.57    4.27    1.00
  WS02006230WS02006229 CONDUIT   1016.48     0  02:12      2.64   22.62    1.00
  WS02006231WS02006230 CONDUIT    453.44     0  02:30      1.29    6.88    1.00
  WS02006232WS02006231 CONDUIT    453.47     0  02:21      1.18    0.95    1.00
  WS02006234WS02006232 CONDUIT    453.27     0  02:30      1.18    0.92    1.00
  WS02006235WS02006234 CONDUIT    402.76     0  02:34      1.05    4.25    1.00
  WS02006238WS02006235 CONDUIT    401.99     0  02:04      1.04    0.90    1.00
  WS02006239WS02006238 CONDUIT    401.13     0  02:04      1.04    1.28    1.00
  WS02006240WS02006239 CONDUIT    400.88     0  02:04      1.04    1.26    1.00
  WS02006242WS02006240 CONDUIT    400.97     0  02:04      1.04    1.59    1.00
  WS02006243WS02006242 CONDUIT    278.54     0  02:06      0.72    0.60    1.00
  WS02006245WS02006243 CONDUIT    278.45     0  02:06      0.91    0.82    1.00
  WS02006247WS02006245 CONDUIT    278.79     0  02:06      0.80    2.21    1.00
  WS02006248WS02006247 CONDUIT    279.29     0  02:06      0.85    0.61    1.00
  WS02006249WS02006248 CONDUIT    183.32     0  03:04      0.90    1.00    1.00
  WS02006251WS02006249 CONDUIT   1361.79     0  02:13      3.54    3.93    1.00
  WS02006252WS02006251 CONDUIT    269.43     0  02:13      2.14    0.99    1.00
  WS02006253WS02006251 CONDUIT   1630.25     0  02:13      4.24    4.89    1.00
  WS02006256WS02006235 CONDUIT     15.53     0  01:32      0.48    0.16    1.00
  WS02006280WS02006229 CONDUIT   2306.48     0  02:12      4.47    0.49    1.00
  WS02006284WS02006280 CONDUIT   2304.97     0  02:12      3.02    0.97    1.00
  WS02006287WS02006284 CONDUIT   2304.88     0  02:12      2.93    1.07    1.00
  WSF200WS02003060     CONDUIT   1312.19     0  02:14      2.64    0.29    0.47
  YS02001580YS02001583 CONDUIT     76.79     0  02:02      0.57    0.30    1.00
  YS02001583YS02001586 CONDUIT    140.59     0  02:02      0.59    0.21    1.00
  YS02001586YS02001590 CONDUIT    318.81     0  02:34      1.25    0.56    1.00
  YS02001590YS02001593 CONDUIT    318.31     0  02:34      1.13    2.00    1.00
  YS02001593YS02001596 CONDUIT    318.25     0  02:19      1.60    0.50    1.00
  YS02001596YS02001600 CONDUIT    318.10     0  02:20      1.13    0.62    1.00
  YS02001600YS02001601 CONDUIT    318.15     0  02:30      1.13    0.55    1.00
  YS02001601YS02001602 CONDUIT    500.70     0  02:01      1.77    1.81    1.00
  YS02001602YS02001605 CONDUIT    500.69     0  02:01      1.77   10.60    1.00
  YS02001605YS02001607 CONDUIT    500.26     0  02:01      1.77    2.74    1.00
  YS02001607YS02001610 CONDUIT    496.97     0  02:01      0.63    0.47    1.00
  YS02001610YS02001613 CONDUIT    498.28     0  02:01      0.63    0.57    1.00
  YS02001613YS02001616 CONDUIT    499.54     0  02:02      0.64    0.43    1.00
  YS02001616YS02001619 CONDUIT    509.21     0  02:02      0.67    0.88    1.00
  YS02001619YS02001622 CONDUIT    925.13     0  02:13      1.18    1.36    1.00
  YS02001622YS02001625 CONDUIT    926.10     0  02:13      1.18    0.49    1.00
  YS02001625YS02001629 CONDUIT    912.00     0  02:02      1.16    0.43    1.00
  YS02001629YS02163301 CONDUIT    893.31     0  02:02      1.14    1.10    1.00
  YS02001633YS02163601 CONDUIT   1210.19     0  02:03      1.54    1.27    1.00
  YS02001641YS02001644 CONDUIT   1209.87     0  02:03      1.54    3.91    1.00
  YS02001644YS02001647 CONDUIT   1526.24     0  02:04      2.03    0.90    1.00
  YS02001647YS02001649 CONDUIT   1526.68     0  02:04      2.00    0.81    1.00
  YS02001649YS02001757 CONDUIT   1614.85     0  02:05      2.06    0.98    1.00
  YS02001652YS02001649 CONDUIT    831.32     0  02:13      1.06    0.41    1.00
  YS02001655YS02001652 CONDUIT    830.40     0  02:13      1.29    0.40    1.00
  YS02001658YS02001655 CONDUIT    830.04     0  02:13      1.78    0.35    1.00
  YS02001661YS02001658 CONDUIT    829.89     0  02:13      2.08    0.33    1.00
  YS02001664YS02001661 CONDUIT    828.69     0  02:13      1.97    0.26    0.79
  YS02001745YS02001748 CONDUIT    520.64     0  02:13      1.93    0.20    0.94
  YS02001748YS02001751 CONDUIT    520.87     0  02:13      1.54    0.26    1.00
  YS02001751YS02001754 CONDUIT    521.55     0  02:13      1.38    0.25    1.00
  YS02001754YS02001757 CONDUIT    522.07     0  02:13      0.66    0.21    1.00
  YS02001757CaochengTiaoxuchi CONDUIT   2687.70     0  02:08      3.42    1.16    1.00
  YS02001759YS02001757 CONDUIT   1110.62     0  02:12      1.41    0.79    1.00
  YS02001762YS02001759 CONDUIT    618.51     0  02:08      0.79    0.71    1.00
  YS02001765YS02001762 CONDUIT    618.86     0  02:08      0.79    0.58    1.00
  YS02001767YS02001765 CONDUIT    619.68     0  02:09      0.79    0.78    1.00
  YS02001770YS02001767 CONDUIT    619.20     0  02:09      0.79    2.45    1.00
  YS02001774YS02001770 CONDUIT    635.86     0  02:13      0.81    0.41    1.00
  YS02001779YS02001774 CONDUIT    634.76     0  02:14      0.81    0.32    1.00
  YS02001783YS02001784 CONDUIT    980.20     0  02:12      1.95    1.35    1.00
  YS02001784YS02001785 CONDUIT    982.00     0  02:12      1.95    2.29    1.00
  YS02001786YS02001788 CONDUIT    982.71     0  02:12      1.96    1.89    1.00
  YS02001788YS02001790 CONDUIT    983.73     0  02:12      1.96    0.73    1.00
  YS02001790YS02001791 CONDUIT    984.55     0  02:12      2.11    1.07    1.00
  YS02001791YS02001793 CONDUIT    985.62     0  02:12      3.78    0.42    1.00
  YS02001793JiankangQianchi CONDUIT    987.21     0  02:12      1.26    0.08    1.00
  YS02001882YS02001884 CONDUIT     33.96     0  02:04      0.13    0.04    1.00
  YS02001884YS02001887 CONDUIT     70.86     0  02:03      0.09    0.09    1.00
  YS02001887YS02001890 CONDUIT    766.44     0  02:13      0.98    1.31    1.00
  YS02001890YS02001895 CONDUIT    517.37     0  02:17      0.66    0.24    1.00
  YS02001895YS02001898 CONDUIT    517.80     0  02:17      0.66    0.90    1.00
  YS02001898YS02001901 CONDUIT    517.26     0  02:15      0.66    0.33    1.00
  YS02001901YS02001904 CONDUIT    517.30     0  02:15      0.66    0.80    1.00
  YS02001904YS02001907 CONDUIT    517.28     0  02:15      0.66    0.18    1.00
  YS02001907YS02006553 CONDUIT    679.17     0  02:31      0.75    0.80    1.00
  YS02001910YS02001907 CONDUIT   1343.04     0  02:13      1.71    0.76    1.00
  YS02001915YS02001910 CONDUIT   1342.20     0  02:13      1.71    0.67    1.00
  YS02001918YS02001915 CONDUIT    451.58     0  02:13      0.57    0.25    1.00
  YS02001920YS02001918 CONDUIT    451.31     0  02:13      0.64    0.44    1.00
  YS02001923YS02001920 CONDUIT    448.85     0  02:13      0.68    0.20    1.00
  YS02001926YS02001923 CONDUIT    450.97     0  02:13      0.92    0.64    1.00
  YS02001929YS02001926 CONDUIT    450.08     0  02:13      1.06    0.21    1.00
  YS02006553YS02006556 CONDUIT    678.60     0  02:31      0.86    0.58    1.00
  YS02006556YS02006558 CONDUIT    681.47     0  02:31      0.87    0.54    1.00
  YS02006558YS02006561 CONDUIT    981.12     0  02:12      3.47    2.17    1.00
  YS02006561YS02001783 CONDUIT    979.96     0  02:12      1.95    0.51    1.00
  YS02163301YS02001633 CONDUIT    892.05     0  02:02      1.14    0.84    1.00
  YS02163601YS02164001 CONDUIT   1211.09     0  02:03      1.54    1.07    1.00
  YS02164001YS02001641 CONDUIT   1209.95     0  02:03      1.54    1.65    1.00
  YSB1154YSB6556       CONDUIT    414.11     0  02:14      1.08    0.74    1.00
  YSB1171HS02004479    CONDUIT    414.82     0  02:07      0.83    0.28    1.00
  YSB1174YSB1171       CONDUIT    360.92     0  02:13      0.94    0.55    1.00
  YSB6556YSB1171       CONDUIT    414.26     0  02:14      1.08    0.43    1.00
  CC-R1                PUMP         0.00     0  00:00              0.00
  CC-R2                PUMP         0.00     0  00:00              0.00
  CC-S1                PUMP         0.00     0  00:00              0.00
  CC-S2                PUMP         0.00     0  00:00              0.00
  JK-R1                PUMP         0.00     0  00:00              0.00
  JK-R2                PUMP         0.00     0  00:00              0.00
  JK-S                 PUMP         0.00     0  00:00              0.00
  XR-1                 PUMP         0.00     0  00:00              0.00
  XR-2                 PUMP         0.00     0  00:00              0.00
  XR-3                 PUMP         0.00     0  00:00              0.00
  XR-4                 PUMP         0.00     0  00:00              0.00
  
  
  ***************************
  Flow Classification Summary
  ***************************
  
  -------------------------------------------------------------------------------------
                      Adjusted    ---------- Fraction of Time in Flow Class ---------- 
                       /Actual         Up    Down  Sub   Sup   Up    Down  Norm  Inlet 
  Conduit               Length    Dry  Dry   Dry   Crit  Crit  Crit  Crit  Ltd   Ctrl  
  -------------------------------------------------------------------------------------
  1                       1.00   0.00  0.00  0.00  0.00  1.00  0.00  0.00  0.26  0.00
  HS02004478WS02006287    1.00   0.08  0.00  0.00  0.60  0.33  0.00  0.00  0.59  0.00
  HS02004479HS02004480    1.00   0.02  0.00  0.00  0.98  0.00  0.00  0.00  0.11  0.00
  HS02004480HS02004478    1.00   0.06  0.00  0.00  0.54  0.00  0.00  0.40  0.00  0.00
  HS02004770HS02004777    1.00   0.00  0.06  0.00  0.94  0.00  0.00  0.00  0.03  0.00
  HS02004777HS02004785    1.00   0.00  0.00  0.00  1.00  0.00  0.00  0.00  0.12  0.00
  HS02004785HS02004788    1.00   0.00  0.00  0.00  1.00  0.00  0.00  0.00  0.00  0.00
  HS02004788HS02004792    1.00   0.00  0.00  0.00  0.99  0.01  0.00  0.00  0.90  0.00
  HS02004792HS02004799    1.00   0.00  0.00  0.00  0.99  0.01  0.00  0.00  0.86  0.00
  HS02004799HS02004480    1.00   0.00  0.02  0.00  0.93  0.00  0.06  0.00  0.00  0.00
  HS02004802HS02004478    1.00   0.06  0.00  0.00  0.94  0.00  0.00  0.00  0.02  0.00
  HS02004807HS02004802    1.00   0.06  0.00  0.00  0.93  0.00  0.00  0.01  0.00  0.00
  HS02004817HS02004807    1.00   0.00  0.06  0.00  0.94  0.00  0.00  0.00  0.01  0.00
  HS02004817HS02004824    1.00   0.00  0.00  0.00  1.00  0.00  0.00  0.00  0.81  0.00
  HS02004824HS02004830    1.00   0.00  0.00  0.00  1.00  0.00  0.00  0.00  0.01  0.00
  HS02004830HS02004837    1.00   0.00  0.00  0.00  1.00  0.00  0.00  0.00  0.88  0.00
  HS02004837HS02004842    1.00   0.00  0.00  0.00  1.00  0.00  0.00  0.00  0.11  0.00
  HS02004842HS02004848    1.00   0.00  0.06  0.00  0.94  0.00  0.00  0.00  0.55  0.00
  HS02004848HS02004852    1.00   0.06  0.00  0.00  0.94  0.00  0.00  0.00  0.70  0.00
  HS02004852HS02004856    1.00   0.06  0.01  0.00  0.94  0.00  0.00  0.00  0.67  0.00
  HS02004856HS02004862    1.00   0.00  0.08  0.00  0.92  0.00  0.00  0.00  0.74  0.00
  HS02004862HS02004870    1.00   0.00  0.00  0.00  1.00  0.00  0.00  0.00  0.03  0.00
  HS02004870HS02004876    1.00   0.00  0.00  0.00  1.00  0.00  0.00  0.00  0.86  0.00
  HS02004876HS02004881    1.00   0.00  0.00  0.00  0.69  0.30  0.00  0.00  0.00  0.00
  HS02004881HS02006253    1.00   0.02  0.00  0.00  0.27  0.04  0.00  0.66  0.11  0.00
  HS02004901HS02004770    1.00   0.06  0.00  0.00  0.94  0.00  0.00  0.00  0.00  0.00
  WS02001211WS02001212    1.00   0.00  0.02  0.00  0.98  0.00  0.00  0.00  0.00  0.00
  WS02001212WS02001213    1.00   0.02  0.00  0.00  0.48  0.00  0.49  0.00  0.00  0.00
  WS02001213WS02003059    1.00   0.00  0.00  0.00  0.99  0.00  0.00  0.00  0.00  0.00
  WS02003059WS02003060    1.00   0.00  0.00  0.00  1.00  0.00  0.00  0.00  0.08  0.00
  WS02003060WS02003069    1.00   0.00  0.00  0.00  0.96  0.04  0.00  0.00  0.74  0.00
  WS02003066WSF200        1.00   0.05  0.00  0.00  0.00  0.95  0.00  0.00  0.66  0.00
  WS02003067WS02003066    1.00   0.04  0.01  0.00  0.95  0.00  0.00  0.00  0.00  0.00
  WS02003069WS02003072    1.00   0.00  0.00  0.00  1.00  0.00  0.00  0.00  0.75  0.00
  WS02003072WS02003073    1.00   0.00  0.00  0.00  0.00  0.00  0.00  1.00  0.00  0.00
  WS02004138WS02004139    1.00   0.01  0.99  0.00  0.00  0.00  0.00  0.00  0.00  0.00
  WS02004139WS02001211    1.00   0.00  0.00  0.00  1.00  0.00  0.00  0.00  0.00  0.00
  WS02004401WS02004402    1.00   0.00  0.00  0.00  1.00  0.00  0.00  0.00  0.00  0.00
  WS02004402WS02004403    1.00   0.00  0.00  0.00  1.00  0.00  0.00  0.00  0.00  0.00
  WS02004403WS02004404    1.00   0.00  0.00  0.00  1.00  0.00  0.00  0.00  0.00  0.00
  WS02004404WS02004405    1.00   0.00  0.00  0.00  1.00  0.00  0.00  0.00  0.00  0.00
  WS02004405WS02004406    1.00   0.00  0.00  0.00  1.00  0.00  0.00  0.00  0.00  0.00
  WS02004406WS02004407    1.00   0.00  0.00  0.00  1.00  0.00  0.00  0.00  0.01  0.00
  WS02004407WS02004409    1.00   0.00  0.00  0.00  0.99  0.00  0.00  0.00  0.87  0.00
  WS02004409WS02004410    1.00   0.00  0.00  0.00  1.00  0.00  0.00  0.00  0.04  0.00
  WS02004410WS02004411    1.00   0.01  0.00  0.00  0.99  0.00  0.00  0.00  0.02  0.00
  WS02004411WS02004412    1.00   0.01  0.00  0.00  0.99  0.00  0.00  0.00  0.00  0.00
  WS02004412WS02004413    1.00   0.01  0.00  0.00  0.99  0.00  0.00  0.00  0.02  0.00
  WS02004413WS02003067    1.00   0.01  0.03  0.00  0.00  0.00  0.96  0.00  0.00  0.00
  WS02006109WS02006110    1.00   0.00  0.00  0.00  1.00  0.00  0.00  0.00  0.00  0.00
  WS02006110WS02006113    1.00   0.00  0.00  0.00  1.00  0.00  0.00  0.00  0.00  0.00
  WS02006111WS02006112    1.00   0.00  0.00  0.00  1.00  0.00  0.00  0.00  0.82  0.00
  WS02006112WS02006115    1.00   0.00  0.00  0.00  1.00  0.00  0.00  0.00  0.00  0.00
  WS02006113WS02006111    1.00   0.00  0.00  0.00  0.28  0.72  0.00  0.00  0.05  0.00
  WS02006115WS02006116    1.00   0.00  0.00  0.00  1.00  0.00  0.00  0.00  0.00  0.00
  WS02006116WS02004401    1.00   0.00  0.00  0.00  1.00  0.00  0.00  0.00  0.00  0.00
  WS02006228WS02006109    1.00   0.00  0.00  0.00  1.00  0.00  0.00  0.00  0.00  0.00
  WS02006229WS02006228    1.00   0.00  0.00  0.00  1.00  0.00  0.00  0.00  0.00  0.00
  WS02006230WS02006229    1.00   0.00  0.00  0.00  1.00  0.00  0.00  0.00  0.03  0.00
  WS02006231WS02006230    1.00   0.00  0.00  0.00  0.48  0.00  0.52  0.00  0.00  0.00
  WS02006232WS02006231    1.00   0.00  0.00  0.00  1.00  0.00  0.00  0.00  0.01  0.00
  WS02006234WS02006232    1.00   0.00  0.03  0.00  0.97  0.00  0.00  0.00  0.47  0.00
  WS02006235WS02006234    1.00   0.10  0.00  0.00  0.61  0.00  0.29  0.00  0.00  0.00
  WS02006238WS02006235    1.00   0.09  0.02  0.00  0.90  0.00  0.00  0.00  0.00  0.00
  WS02006239WS02006238    1.00   0.08  0.00  0.00  0.90  0.00  0.00  0.02  0.38  0.00
  WS02006240WS02006239    1.00   0.08  0.00  0.00  0.51  0.00  0.00  0.41  0.00  0.00
  WS02006242WS02006240    1.00   0.02  0.06  0.00  0.90  0.00  0.02  0.00  0.00  0.00
  WS02006243WS02006242    1.00   0.02  0.00  0.00  0.91  0.00  0.00  0.08  0.59  0.00
  WS02006245WS02006243    1.00   0.01  0.00  0.00  0.84  0.00  0.00  0.15  0.00  0.00
  WS02006247WS02006245    1.00   0.01  0.00  0.00  0.94  0.00  0.00  0.05  0.00  0.00
  WS02006248WS02006247    1.00   0.01  0.00  0.00  0.97  0.00  0.00  0.02  0.62  0.00
  WS02006249WS02006248    1.00   0.00  0.01  0.00  0.43  0.00  0.56  0.00  0.00  0.00
  WS02006251WS02006249    1.00   0.00  0.00  0.00  1.00  0.00  0.00  0.00  0.72  0.00
  WS02006252WS02006251    1.00   0.19  0.00  0.00  0.26  0.00  0.55  0.00  0.00  0.00
  WS02006253WS02006251    1.00   0.02  0.03  0.00  0.92  0.00  0.02  0.00  0.00  0.00
  WS02006256WS02006235    1.00   0.10  0.00  0.00  0.89  0.00  0.00  0.00  0.00  0.00
  WS02006280WS02006229    1.00   0.06  0.00  0.00  0.24  0.03  0.00  0.67  0.00  0.00
  WS02006284WS02006280    1.00   0.06  0.00  0.00  0.16  0.02  0.00  0.75  0.00  0.00
  WS02006287WS02006284    1.00   0.05  0.03  0.00  0.49  0.43  0.00  0.00  0.65  0.00
  WSF200WS02003060        1.00   0.00  0.05  0.00  0.36  0.59  0.00  0.00  0.62  0.00
  YS02001580YS02001583    1.00   0.23  0.43  0.00  0.34  0.00  0.00  0.00  0.63  0.00
  YS02001583YS02001586    1.00   0.26  0.34  0.00  0.40  0.00  0.00  0.00  0.63  0.00
  YS02001586YS02001590    1.00   0.06  0.00  0.00  0.63  0.03  0.00  0.28  0.35  0.00
  YS02001590YS02001593    1.00   0.06  0.00  0.00  0.23  0.00  0.71  0.00  0.00  0.00
  YS02001593YS02001596    1.00   0.06  0.00  0.00  0.80  0.01  0.00  0.13  0.62  0.00
  YS02001596YS02001600    1.00   0.06  0.00  0.00  0.87  0.01  0.00  0.05  0.02  0.00
  YS02001600YS02001601    1.00   0.06  0.00  0.00  0.94  0.00  0.00  0.00  0.04  0.00
  YS02001601YS02001602    1.00   0.06  0.00  0.00  0.94  0.00  0.00  0.00  0.00  0.00
  YS02001602YS02001605    1.00   0.06  0.00  0.00  0.94  0.00  0.00  0.00  0.00  0.00
  YS02001605YS02001607    1.00   0.06  0.00  0.00  0.94  0.00  0.00  0.00  0.00  0.00
  YS02001607YS02001610    1.00   0.06  0.00  0.00  0.94  0.00  0.00  0.00  0.01  0.00
  YS02001610YS02001613    1.00   0.06  0.00  0.00  0.94  0.00  0.00  0.00  0.00  0.00
  YS02001613YS02001616    1.00   0.06  0.00  0.00  0.94  0.00  0.00  0.00  0.00  0.00
  YS02001616YS02001619    1.00   0.06  0.00  0.00  0.94  0.00  0.00  0.00  0.00  0.00
  YS02001619YS02001622    1.00   0.06  0.00  0.00  0.94  0.00  0.00  0.00  0.00  0.00
  YS02001622YS02001625    1.00   0.06  0.00  0.00  0.94  0.00  0.00  0.00  0.04  0.00
  YS02001625YS02001629    1.00   0.06  0.03  0.00  0.82  0.00  0.09  0.00  0.00  0.00
  YS02001629YS02163301    1.00   0.07  0.01  0.00  0.92  0.00  0.00  0.00  0.00  0.00
  YS02001633YS02163601    1.00   0.00  0.00  0.00  1.00  0.00  0.00  0.00  0.15  0.00
  YS02001641YS02001644    1.00   0.00  0.00  0.00  1.00  0.00  0.00  0.00  0.00  0.00
  YS02001644YS02001647    1.00   0.00  0.08  0.00  0.92  0.00  0.00  0.00  0.00  0.00
  YS02001647YS02001649    1.00   0.00  0.08  0.00  0.84  0.08  0.00  0.00  0.01  0.00
  YS02001649YS02001757    1.00   0.00  0.00  0.00  0.91  0.09  0.00  0.00  0.18  0.00
  YS02001652YS02001649    1.00   0.00  0.00  0.00  0.97  0.03  0.00  0.00  0.17  0.00
  YS02001655YS02001652    1.00   0.00  0.00  0.00  0.81  0.02  0.00  0.17  0.02  0.00
  YS02001658YS02001655    1.00   0.00  0.07  0.00  0.76  0.17  0.00  0.00  0.05  0.00
  YS02001661YS02001658    1.00   0.07  0.00  0.00  0.75  0.18  0.00  0.00  0.01  0.00
  YS02001664YS02001661    1.00   0.06  0.00  0.00  0.83  0.11  0.00  0.00  0.79  0.00
  YS02001745YS02001748    1.00   0.00  0.00  0.00  0.75  0.00  0.00  0.24  0.00  0.00
  YS02001748YS02001751    1.00   0.00  0.00  0.00  0.82  0.18  0.00  0.00  0.13  0.00
  YS02001751YS02001754    1.00   0.00  0.00  0.00  0.78  0.01  0.00  0.21  0.01  0.00
  YS02001754YS02001757    1.00   0.00  0.00  0.00  1.00  0.00  0.00  0.00  0.24  0.00
  YS02001757CaochengTiaoxuchi    1.00   0.00  0.00  0.00  1.00  0.00  0.00  0.00  0.10  0.00
  YS02001759YS02001757    1.00   0.00  0.00  0.00  1.00  0.00  0.00  0.00  0.15  0.00
  YS02001762YS02001759    1.00   0.00  0.00  0.00  1.00  0.00  0.00  0.00  0.03  0.00
  YS02001765YS02001762    1.00   0.00  0.00  0.00  1.00  0.00  0.00  0.00  0.15  0.00
  YS02001767YS02001765    1.00   0.00  0.00  0.00  1.00  0.00  0.00  0.00  0.00  0.00
  YS02001770YS02001767    1.00   0.00  0.00  0.00  1.00  0.00  0.00  0.00  0.00  0.00
  YS02001774YS02001770    1.00   0.00  0.06  0.00  0.94  0.00  0.00  0.00  0.03  0.00
  YS02001779YS02001774    1.00   0.00  0.00  0.00  1.00  0.00  0.00  0.00  0.18  0.00
  YS02001783YS02001784    1.00   0.00  0.09  0.00  0.91  0.00  0.00  0.00  0.00  0.00
  YS02001784YS02001785    1.00   0.00  0.00  0.00  1.00  0.00  0.00  0.00  0.17  0.00
  YS02001786YS02001788    1.00   0.00  0.00  0.00  0.93  0.07  0.00  0.00  0.00  0.00
  YS02001788YS02001790    1.00   0.00  0.00  0.00  0.93  0.07  0.00  0.00  0.19  0.00
  YS02001790YS02001791    1.00   0.00  0.00  0.00  0.84  0.16  0.00  0.00  0.02  0.00
  YS02001791YS02001793    1.00   0.00  0.00  0.00  0.85  0.15  0.00  0.00  0.01  0.00
  YS02001793JiankangQianchi    1.00   0.00  0.00  0.00  1.00  0.00  0.00  0.00  0.21  0.00
  YS02001882YS02001884    1.00   0.07  0.00  0.00  0.93  0.00  0.00  0.00  0.00  0.00
  YS02001884YS02001887    1.00   0.03  0.03  0.00  0.95  0.00  0.00  0.00  0.00  0.00
  YS02001887YS02001890    1.00   0.00  0.00  0.00  0.99  0.00  0.01  0.00  0.00  0.00
  YS02001890YS02001895    1.00   0.00  0.08  0.00  0.92  0.00  0.00  0.00  0.00  0.00
  YS02001895YS02001898    1.00   0.08  0.00  0.00  0.90  0.00  0.02  0.00  0.00  0.00
  YS02001898YS02001901    1.00   0.08  0.00  0.00  0.92  0.00  0.00  0.00  0.01  0.00
  YS02001901YS02001904    1.00   0.08  0.00  0.00  0.92  0.00  0.00  0.00  0.00  0.00
  YS02001904YS02001907    1.00   0.00  0.08  0.00  0.92  0.00  0.00  0.00  0.00  0.00
  YS02001907YS02006553    1.00   0.00  0.01  0.00  0.99  0.00  0.00  0.00  0.00  0.00
  YS02001910YS02001907    1.00   0.00  0.00  0.00  0.99  0.00  0.00  0.01  0.12  0.00
  YS02001915YS02001910    1.00   0.00  0.00  0.00  0.98  0.02  0.00  0.00  0.16  0.00
  YS02001918YS02001915    1.00   0.00  0.00  0.00  0.99  0.01  0.00  0.00  0.75  0.00
  YS02001920YS02001918    1.00   0.00  0.00  0.00  1.00  0.00  0.00  0.00  0.01  0.00
  YS02001923YS02001920    1.00   0.00  0.00  0.00  1.00  0.00  0.00  0.00  0.91  0.00
  YS02001926YS02001923    1.00   0.00  0.03  0.00  0.10  0.00  0.87  0.00  0.00  0.00
  YS02001929YS02001926    1.00   0.00  0.06  0.00  0.94  0.00  0.00  0.00  0.81  0.00
  YS02006553YS02006556    1.00   0.01  0.00  0.00  0.99  0.00  0.00  0.00  0.03  0.00
  YS02006556YS02006558    1.00   0.00  0.00  0.00  1.00  0.00  0.00  0.00  0.00  0.00
  YS02006558YS02006561    1.00   0.09  0.00  0.00  0.12  0.78  0.00  0.00  0.18  0.00
  YS02006561YS02001783    1.00   0.09  0.00  0.00  0.81  0.10  0.00  0.00  0.71  0.00
  YS02163301YS02001633    1.00   0.00  0.07  0.00  0.93  0.00  0.00  0.00  0.00  0.00
  YS02163601YS02164001    1.00   0.00  0.04  0.00  0.96  0.00  0.00  0.00  0.00  0.00
  YS02164001YS02001641    1.00   0.00  0.03  0.00  0.96  0.00  0.00  0.00  0.05  0.00
  YSB1154YSB6556          1.00   0.06  0.00  0.00  0.94  0.00  0.00  0.00  0.02  0.00
  YSB1171HS02004479       1.00   0.02  0.00  0.00  0.98  0.00  0.00  0.01  0.10  0.00
  YSB1174YSB1171          1.00   0.02  0.02  0.00  0.96  0.00  0.00  0.00  0.00  0.00
  YSB6556YSB1171          1.00   0.02  0.04  0.00  0.94  0.00  0.00  0.00  0.00  0.00
  
  
  *************************
  Conduit Surcharge Summary
  *************************
  
  ----------------------------------------------------------------------------
                                                           Hours        Hours 
                         --------- Hours Full --------   Above Full   Capacity
  Conduit                Both Ends  Upstream  Dnstream   Normal Flow   Limited
  ----------------------------------------------------------------------------
  HS02004478WS02006287        0.48      0.48      0.67      0.01         0.01
  HS02004479HS02004480        0.66      0.66      0.69      0.01         0.01
  HS02004480HS02004478        0.59      0.66      0.59      1.69         0.59
  HS02004770HS02004777        0.56      0.56      0.57      0.12         0.07
  HS02004777HS02004785        0.51      0.51      0.57      0.01         0.01
  HS02004785HS02004788        0.50      0.51      0.50      1.44         0.46
  HS02004788HS02004792        0.50      0.50      0.63      0.01         0.01
  HS02004792HS02004799        0.63      0.63      0.76      0.01         0.01
  HS02004799HS02004480        0.66      0.66      0.76      0.86         0.01
  HS02004802HS02004478        0.60      0.60      0.68      0.10         0.01
  HS02004807HS02004802        0.65      0.65      0.67      0.25         0.25
  HS02004817HS02004807        0.65      0.65      1.27      0.01         0.01
  HS02004817HS02004824        0.50      0.50      1.27      0.01         0.01
  HS02004824HS02004830        0.47      0.47      0.50      0.01         0.01
  HS02004830HS02004837        0.43      0.43      0.47      0.01         0.01
  HS02004837HS02004842        0.43      0.43      0.57      0.01         0.01
  HS02004842HS02004848        0.38      0.38      0.57      0.01         0.01
  HS02004848HS02004852        0.38      0.38      0.40      0.03         0.01
  HS02004852HS02004856        0.40      0.40      0.41      0.03         0.01
  HS02004856HS02004862        0.37      0.37      0.42      0.02         0.01
  HS02004862HS02004870        0.42      0.42      0.42      0.29         0.24
  HS02004870HS02004876        0.42      0.42      0.48      0.01         0.01
  HS02004876HS02004881        0.45      0.48      0.45      1.47         0.45
  HS02004881HS02006253        0.45      0.45      1.18      0.01         0.01
  HS02004901HS02004770        0.56      0.56      0.56      0.01         0.01
  WS02003072WS02003073        0.01      0.01      0.01      1.69         0.01
  WS02004401WS02004402        1.38      1.38      1.40      1.27         1.26
  WS02004402WS02004403        1.40      1.40      1.40      1.38         1.37
  WS02004403WS02004404        1.40      1.40      1.50      0.01         0.02
  WS02004404WS02004405        1.48      1.50      1.48      2.52         1.48
  WS02004405WS02004406        1.46      1.48      1.46      1.60         1.46
  WS02004406WS02004407        0.01      0.01      1.46      0.01         0.01
  WS02004407WS02004409        0.01      0.01      1.00      0.01         0.01
  WS02004409WS02004410        0.96      1.00      0.96      1.31         0.96
  WS02004410WS02004411        0.88      0.96      0.88      1.35         0.88
  WS02004411WS02004412        0.78      0.88      0.78      1.37         0.78
  WS02004412WS02004413        0.78      0.78      1.23      0.01         0.01
  WS02004413WS02003067        0.01      0.01      1.23      0.01         0.01
  WS02006109WS02006110        1.57      1.58      1.78      1.59         0.01
  WS02006110WS02006113        1.22      1.22      1.77      0.30         0.01
  WS02006111WS02006112        1.20      1.21      1.91      0.01         0.01
  WS02006112WS02006115        1.32      1.32      1.62      0.01         0.01
  WS02006113WS02006111        1.21      1.22      1.22      1.26         1.21
  WS02006115WS02006116        1.33      1.33      1.33      1.31         1.30
  WS02006116WS02004401        1.38      1.38      1.38      1.36         1.35
  WS02006228WS02006109        1.74      1.77      1.74      2.02         1.74
  WS02006229WS02006228        1.74      1.75      1.74      1.88         1.74
  WS02006230WS02006229        1.80      1.81      1.80      1.87         0.64
  WS02006231WS02006230        1.45      1.45      1.47      1.58         1.03
  WS02006232WS02006231        1.46      1.46      1.55      0.01         0.16
  WS02006234WS02006232        1.46      1.46      1.55      0.01         0.01
  WS02006235WS02006234        1.44      1.44      1.45      1.41         1.00
  WS02006238WS02006235        1.46      1.46      1.48      0.01         0.32
  WS02006239WS02006238        1.44      1.44      1.46      0.81         0.01
  WS02006240WS02006239        1.38      1.38      1.41      0.80         0.01
  WS02006242WS02006240        1.38      1.38      1.40      0.85         0.85
  WS02006243WS02006242        1.33      1.33      1.39      0.01         0.01
  WS02006245WS02006243        1.30      1.30      1.32      0.01         0.01
  WS02006247WS02006245        1.29      1.29      1.29      1.17         0.19
  WS02006248WS02006247        1.27      1.27      1.29      0.01         0.01
  WS02006249WS02006248        1.26      1.26      1.27      0.01         0.01
  WS02006251WS02006249        1.25      1.25      1.27      0.79         0.79
  WS02006252WS02006251        1.15      1.15      1.20      0.01         0.01
  WS02006253WS02006251        1.25      1.25      1.26      0.80         0.01
  WS02006256WS02006235        1.85      1.85      3.83      0.01         0.01
  WS02006280WS02006229        0.79      0.79      0.93      0.01         0.01
  WS02006284WS02006280        0.69      0.69      0.78      0.01         0.01
  WS02006287WS02006284        0.59      0.59      0.70      0.29         0.29
  YS02001580YS02001583        0.61      0.61      0.67      0.01         0.01
  YS02001583YS02001586        0.62      0.62      0.85      0.01         0.01
  YS02001586YS02001590        0.86      0.86      0.95      0.01         0.01
  YS02001590YS02001593        0.96      0.96      0.98      0.92         0.01
  YS02001593YS02001596        0.97      0.97      1.12      0.01         0.01
  YS02001596YS02001600        1.19      1.19      2.62      0.01         0.01
  YS02001600YS02001601        6.14      6.14      6.29      0.01         0.01
  YS02001601YS02001602        6.23      6.23      6.31      1.14         0.01
  YS02001602YS02001605        6.20      6.20      6.23      2.28         1.33
  YS02001605YS02001607        6.16      6.20      6.16      1.39         1.27
  YS02001607YS02001610        1.25      1.25      4.11      0.01         0.01
  YS02001610YS02001613        1.28      1.28      4.11      0.01         0.01
  YS02001613YS02001616        1.08      1.08      1.28      0.01         0.01
  YS02001616YS02001619        1.05      1.05      1.08      0.01         0.01
  YS02001619YS02001622        1.05      1.05      1.07      0.72         0.63
  YS02001622YS02001625        1.07      1.07      6.01      0.01         0.01
  YS02001625YS02001629        1.04      1.04      6.01      0.01         0.01
  YS02001629YS02163301        6.01      6.01      6.02      0.04         0.06
  YS02001633YS02163601        6.02      6.02      6.04      0.07         0.09
  YS02001641YS02001644        5.98      5.99      5.98      1.43         1.52
  YS02001644YS02001647        5.94      5.94      5.98      0.01         0.01
  YS02001647YS02001649        5.94      5.94      5.95      0.01         0.01
  YS02001649YS02001757        5.95      5.95      5.95      0.01         0.01
  YS02001652YS02001649        5.93      5.93      5.95      0.01         0.01
  YS02001655YS02001652        1.01      1.01      5.93      0.01         0.01
  YS02001658YS02001655        0.50      0.50      1.01      0.01         0.01
  YS02001661YS02001658        0.04      0.04      0.50      0.01         0.01
  YS02001664YS02001661        0.01      0.01      0.14      0.01         0.01
  YS02001745YS02001748        0.01      0.01      0.40      0.01         0.01
  YS02001748YS02001751        0.52      0.52      0.93      0.01         0.01
  YS02001751YS02001754        0.93      0.93      5.92      0.01         0.01
  YS02001754YS02001757        5.92      5.92      5.95      0.01         0.01
  YS02001757CaochengTiaoxuchi        5.95      5.95      6.20      0.18         0.18
  YS02001759YS02001757        5.94      5.94      5.95      0.01         0.01
  YS02001762YS02001759        5.94      5.94      5.94      0.01         0.02
  YS02001765YS02001762        5.94      5.94      5.94      0.01         0.01
  YS02001767YS02001765        5.93      5.93      5.94      0.01         0.03
  YS02001770YS02001767        5.93      5.93      5.93      0.48         1.09
  YS02001774YS02001770        5.93      5.93      5.93      0.01         0.01
  YS02001779YS02001774        5.84      5.84      5.93      0.01         0.01
  YS02001783YS02001784        0.82      0.82      0.83      0.67         0.67
  YS02001784YS02001785        0.82      0.83      0.82      0.99         0.82
  YS02001786YS02001788        0.82      0.82      0.82      0.87         0.82
  YS02001788YS02001790        0.82      0.82      6.18      0.01         0.01
  YS02001790YS02001791        6.18      6.18      6.20      0.44         0.44
  YS02001791YS02001793        6.20      6.20      6.25      0.01         0.01
  YS02001793JiankangQianchi        6.23      6.23      7.99      0.01         0.01
  YS02001882YS02001884        0.56      0.56      0.57      0.01         0.01
  YS02001884YS02001887        0.60      0.60      0.61      0.01         0.01
  YS02001887YS02001890        0.62      0.62      0.63      0.10         0.01
  YS02001890YS02001895        0.55      0.55      0.65      0.01         0.01
  YS02001895YS02001898        0.54      0.54      0.55      0.01         0.01
  YS02001898YS02001901        0.55      0.55      0.60      0.01         0.01
  YS02001901YS02001904        0.59      0.59      0.60      0.01         0.01
  YS02001904YS02001907        0.59      0.59      0.85      0.01         0.01
  YS02001907YS02006553        0.98      0.98      1.05      0.01         0.01
  YS02001910YS02001907        0.65      0.65      0.83      0.01         0.01
  YS02001915YS02001910        0.56      0.56      0.65      0.01         0.01
  YS02001918YS02001915        0.46      0.46      0.56      0.01         0.01
  YS02001920YS02001918        0.46      0.46      0.48      0.01         0.01
  YS02001923YS02001920        0.40      0.40      0.48      0.01         0.01
  YS02001926YS02001923        0.07      0.07      0.12      0.01         0.01
  YS02001929YS02001926        0.01      0.01      0.12      0.01         0.01
  YS02006553YS02006556        0.75      0.75      0.85      0.01         0.01
  YS02006556YS02006558        0.79      0.79      0.87      0.01         0.01
  YS02006558YS02006561        0.60      0.73      0.60      0.94         0.60
  YS02006561YS02001783        0.50      0.50      0.82      0.01         0.01
  YS02163301YS02001633        6.02      6.02      6.03      0.01         0.02
  YS02163601YS02164001        6.00      6.00      6.04      0.04         0.01
  YS02164001YS02001641        5.99      6.00      5.99      0.33         0.27
  YSB1154YSB6556              0.73      0.73      0.89      0.01         0.01
  YSB1171HS02004479           0.62      0.62      0.89      0.01         0.01
  YSB1174YSB1171              0.80      0.80      1.17      0.01         0.01
  YSB6556YSB1171              0.73      0.73      1.33      0.01         0.01
  
  
  ***************
  Pumping Summary
  ***************
  
  ---------------------------------------------------------------------------------------------------------
                                                  Min       Avg       Max     Total     Power    % Time Off
                        Percent   Number of      Flow      Flow      Flow    Volume     Usage    Pump Curve
  Pump                 Utilized   Start-Ups       LPS       LPS       LPS  10^6 ltr     Kw-hr    Low   High
  ---------------------------------------------------------------------------------------------------------
  CC-R1                    0.00           0      0.00      0.00      0.00     0.000      0.00    0.0    0.0
  CC-R2                    0.00           0      0.00      0.00      0.00     0.000      0.00    0.0    0.0
  CC-S1                    0.00           0      0.00      0.00      0.00     0.000      0.00    0.0    0.0
  CC-S2                    0.00           0      0.00      0.00      0.00     0.000      0.00    0.0    0.0
  JK-R1                    0.00           0      0.00      0.00      0.00     0.000      0.00    0.0    0.0
  JK-R2                    0.00           0      0.00      0.00      0.00     0.000      0.00    0.0    0.0
  JK-S                     0.00           0      0.00      0.00      0.00     0.000      0.00    0.0    0.0
  XR-1                     0.00           0      0.00      0.00      0.00     0.000      0.00    0.0    0.0
  XR-2                     0.00           0      0.00      0.00      0.00     0.000      0.00    0.0    0.0
  XR-3                     0.00           0      0.00      0.00      0.00     0.000      0.00    0.0    0.0
  XR-4                     0.00           0      0.00      0.00      0.00     0.000      0.00    0.0    0.0
  

  Analysis begun on:  Tue Dec 13 14:56:34 2022
  Analysis ended on:  Tue Dec 13 14:56:36 2022
  Total elapsed time: 00:00:02