
  OWA STORM WATER MANAGEMENT MODEL - VERSION v5.1.14 (OWA 2022-07-31)
  --------------------------------------------------------------

  WARNING 04: minimum elevation drop used for Conduit WS02004404WS02004405
  WARNING 03: negative offset ignored for Link YS02001904YS02001907
  
  *********************************************************
  NOTE: The summary statistics displayed in this report are
  based on results found at every computational time step,  
  not just on results from each reporting time step.
  *********************************************************
  
  ****************
  Analysis Options
  ****************
  Flow Units ............... LPS
  Process Models:
    Rainfall/Runoff ........ YES
    RDII ................... NO
    Snowmelt ............... NO
    Groundwater ............ NO
    Flow Routing ........... YES
    Ponding Allowed ........ NO
    Water Quality .......... NO
  Infiltration Method ...... HORTON
  Flow Routing Method ...... DYNWAVE
  Surcharge Method ......... EXTRAN
  Starting Date ............ 08/28/2015 08:00:00
  Ending Date .............. 08/28/2015 16:00:00
  Antecedent Dry Days ...... 8.0
  Report Time Step ......... 00:01:00
  Wet Time Step ............ 00:01:00
  Dry Time Step ............ 00:01:00
  Routing Time Step ........ 30.00 sec
  Variable Time Step ....... YES
  Maximum Trials ........... 8
  Number of Threads ........ 4
  Head Tolerance ........... 0.001500 m
  
  
  **************************        Volume         Depth
  Runoff Quantity Continuity     hectare-m            mm
  **************************     ---------       -------
  Total Precipitation ......         3.847        63.505
  Evaporation Loss .........         0.000         0.000
  Infiltration Loss ........         0.242         4.001
  Surface Runoff ...........         3.544        58.509
  Final Storage ............         0.061         1.007
  Continuity Error (%) .....        -0.018
  
  
  **************************        Volume        Volume
  Flow Routing Continuity        hectare-m      10^6 ltr
  **************************     ---------     ---------
  Dry Weather Inflow .......         0.630         6.296
  Wet Weather Inflow .......         3.544        35.444
  Groundwater Inflow .......         0.000         0.000
  RDII Inflow ..............         0.000         0.000
  External Inflow ..........         0.105         1.045
  External Outflow .........         2.653        26.527
  Flooding Loss ............         1.614        16.141
  Evaporation Loss .........         0.000         0.000
  Exfiltration Loss ........         0.000         0.000
  Initial Stored Volume ....         0.303         3.031
  Final Stored Volume ......         0.323         3.227
  Continuity Error (%) .....        -0.174
  
  
  *************************
  Highest Continuity Errors
  *************************
  Node YS02001583 (-6.00%)
  Node YS02001884 (5.18%)
  Node HS02004842 (1.75%)
  
  
  ***************************
  Time-Step Critical Elements
  ***************************
  Link WS02006252WS02006251 (69.02%)
  Link WS02006280WS02006229 (13.38%)
  Link YS02001791YS02001793 (4.19%)
  Link WS02003066WSF200 (2.47%)
  Link WS02004404WS02004405 (2.46%)
  
  
  ********************************
  Highest Flow Instability Indexes
  ********************************
  Link WS02006113WS02006111 (46)
  Link WS02006111WS02006112 (32)
  Link WS02006256WS02006235 (14)
  Link WS02004404WS02004405 (11)
  Link WS02004403WS02004404 (10)
  
  
  *************************
  Routing Time Step Summary
  *************************
  Minimum Time Step           :     0.01 sec
  Average Time Step           :     1.22 sec
  Maximum Time Step           :     6.46 sec
  Percent in Steady State     :    -0.00
  Average Iterations per Step :     2.69
  Percent Not Converging      :     6.53
  
  
  ***************************
  Subcatchment Runoff Summary
  ***************************
  
  ------------------------------------------------------------------------------------------------------------------------------
                            Total      Total      Total      Total     Imperv       Perv      Total       Total     Peak  Runoff
                           Precip      Runon       Evap      Infil     Runoff     Runoff     Runoff      Runoff   Runoff   Coeff
  Subcatchment                 mm         mm         mm         mm         mm         mm         mm    10^6 ltr      LPS
  ------------------------------------------------------------------------------------------------------------------------------
  sub0                      63.51       0.00       0.00       1.00      57.81       3.45      61.26        0.05    34.78   0.965
  sub1                      63.51       0.00       0.00       1.71      55.27       5.28      60.55        0.40   240.95   0.953
  sub10                     63.51       0.00       0.00       1.20      57.14       3.88      61.02        0.67   408.25   0.961
  sub11                     63.51       0.00       0.00       1.18      57.16       3.90      61.06        0.71   450.25   0.961
  sub12                     63.51       0.00       0.00       1.93      54.07       6.33      60.40        0.53   360.26   0.951
  sub14                     63.51       0.00       0.00       1.35      56.53       4.36      60.90        0.58   359.43   0.959
  sub15                     63.51       0.00       0.00       5.33      43.48      13.73      57.21        0.98   569.52   0.901
  sub16                     63.51       0.00       0.00       5.50      41.64      15.46      57.10        0.60   377.91   0.899
  sub17                     63.51       0.00       0.00       5.36      42.26      14.97      57.22        0.49   306.86   0.901
  sub2                      63.51       0.00       0.00       7.61      39.10      15.88      54.99        0.51   253.78   0.866
  sub22                     63.51       0.00       0.00       8.08      35.42      19.23      54.65        3.45  1912.57   0.861
  sub23                     63.51       0.00       0.00       6.58      39.15      16.92      56.07        2.67  1569.44   0.883
  sub3                      63.51       0.00       0.00       8.27      39.06      15.23      54.29        1.22   552.07   0.855
  sub4                      63.51       0.00       0.00       1.91      55.10       5.07      60.18        1.26   606.27   0.948
  sub5                      63.51       0.00       0.00       1.05      57.76       3.40      61.15        0.69   414.18   0.963
  sub60                     63.51       0.00       0.00       1.82      54.68       5.81      60.49        0.79   510.85   0.952
  sub61                     63.51       0.00       0.00       2.63      51.58       8.16      59.74        1.10   710.19   0.941
  sub62                     63.51       0.00       0.00       1.21      57.14       3.87      61.01        1.67  1003.62   0.961
  sub63                     63.51       0.00       0.00       4.88      44.12      13.54      57.66        1.31   804.09   0.908
  sub64                     63.51       0.00       0.00       2.46      52.77       7.06      59.84        1.44   828.04   0.942
  sub65                     63.51       0.00       0.00       2.13      53.99       6.13      60.12        1.66   927.49   0.947
  sub66                     63.51       0.00       0.00       6.06      44.01      12.36      56.37        2.63  1238.22   0.888
  sub67                     63.51       0.00       0.00       1.16      57.18       3.92      61.10        1.14   765.51   0.962
  sub68                     63.51       0.00       0.00       2.18      53.43       6.71      60.14        1.65  1024.82   0.947
  sub69                     63.51       0.00       0.00       1.96      53.87       7.57      61.44        2.27  1233.28   0.967
  sub7                      63.51       0.00       0.00       1.33      56.55       4.39      60.93        0.21   133.20   0.959
  sub70                     63.51       0.00       0.00       6.54      41.75      15.05      56.80        1.64   697.01   0.894
  sub71                     63.51       0.00       0.00       1.24      57.10       3.84      60.93        1.59   895.46   0.960
  sub72                     63.51       0.00       0.00       1.11      57.65       3.34      60.99        0.84   435.69   0.960
  sub8                      63.51       0.00       0.00       1.35      56.54       4.37      60.91        0.39   244.47   0.959
  sub9                      63.51       0.00       0.00       1.35      56.53       4.37      60.90        0.29   182.70   0.959
  
  
  ******************
  Node Depth Summary
  ******************
  
  ---------------------------------------------------------------------------------
                                 Average  Maximum  Maximum  Time of Max    Reported
                                   Depth    Depth      HGL   Occurrence   Max Depth
  Node                 Type       Meters   Meters   Meters  days hr:min      Meters
  ---------------------------------------------------------------------------------
  HS02004478           JUNCTION     0.14     1.59    10.82     0  02:12        1.58
  HS02004479           JUNCTION     0.20     1.68    10.88     0  02:06        1.66
  HS02004480           JUNCTION     0.17     1.65    10.89     0  02:06        1.63
  HS02004770           JUNCTION     0.19     1.42    11.25     0  02:03        1.42
  HS02004777           JUNCTION     0.21     1.48    11.28     0  02:03        1.48
  HS02004785           JUNCTION     0.12     1.49    11.39     0  02:03        1.43
  HS02004788           JUNCTION     0.09     1.42    11.32     0  02:03        1.42
  HS02004792           JUNCTION     0.12     1.60    11.12     0  02:05        1.60
  HS02004799           JUNCTION     0.22     1.76    10.97     0  02:06        1.76
  HS02004802           JUNCTION     0.24     1.80    10.93     0  02:13        1.80
  HS02004807           JUNCTION     0.21     1.92    11.09     0  02:06        1.92
  HS02004817           JUNCTION     0.50     2.44    11.29     0  02:06        2.43
  HS02004824           JUNCTION     0.10     2.01    11.41     0  02:06        2.01
  HS02004830           JUNCTION     0.11     2.03    11.50     0  02:06        2.03
  HS02004837           JUNCTION     0.09     2.04    11.62     0  02:06        2.02
  HS02004842           JUNCTION     0.38     2.22    11.49     0  02:06        2.22
  HS02004848           JUNCTION     0.07     2.07    11.67     0  02:06        1.98
  HS02004852           JUNCTION     0.08     2.12    11.63     0  02:06        1.96
  HS02004856           JUNCTION     0.14     2.07    11.50     0  02:06        2.02
  HS02004862           JUNCTION     0.09     2.00    11.38     0  02:06        2.00
  HS02004870           JUNCTION     0.08     2.06    11.34     0  02:12        2.06
  HS02004876           JUNCTION     0.12     2.12    11.15     0  02:12        2.12
  HS02004881           JUNCTION     0.07     1.81    10.84     0  02:12        1.81
  HS02004901           JUNCTION     0.19     1.42    11.24     0  02:03        1.42
  WS02001211           JUNCTION     0.61     0.81     5.65     0  02:16        0.81
  WS02001212           JUNCTION     0.35     0.57     5.64     0  02:16        0.57
  WS02001213           JUNCTION     0.57     0.87     5.63     0  02:17        0.87
  WS02003059           JUNCTION     0.63     0.94     5.63     0  02:17        0.94
  WS02003060           JUNCTION     0.36     0.69     5.62     0  02:15        0.69
  WS02003066           JUNCTION     0.22     0.46     6.01     0  02:14        0.46
  WS02003067           JUNCTION     0.54     0.89     6.21     0  02:12        0.89
  WS02003069           JUNCTION     0.40     0.78     5.36     0  02:15        0.78
  WS02003072           JUNCTION     0.46     0.81     5.18     0  02:16        0.81
  WS02003073           JUNCTION     0.28     0.52     4.58     0  02:16        0.52
  WS02004138           JUNCTION     0.13     0.14     7.39     0  00:33        0.14
  WS02004139           JUNCTION     0.55     0.75     5.66     0  02:17        0.75
  WS02004401           JUNCTION     0.71     1.92     7.92     0  02:12        1.90
  WS02004402           JUNCTION     0.73     1.86     7.82     0  02:12        1.86
  WS02004403           JUNCTION     0.74     1.78     7.71     0  02:12        1.74
  WS02004404           JUNCTION     0.81     1.78     7.63     0  02:12        1.74
  WS02004405           JUNCTION     0.80     1.72     7.57     0  02:12        1.72
  WS02004406           JUNCTION     0.80     1.61     7.44     0  02:20        1.61
  WS02004407           JUNCTION     0.24     0.94     7.25     0  02:13        0.94
  WS02004409           JUNCTION     0.50     1.50     7.27     0  02:20        1.50
  WS02004410           JUNCTION     0.51     1.36     7.08     0  02:12        1.36
  WS02004411           JUNCTION     0.51     1.21     6.89     0  02:12        1.21
  WS02004412           JUNCTION     0.52     1.11     6.75     0  02:13        1.11
  WS02004413           JUNCTION     0.66     1.15     6.62     0  02:12        1.15
  WS02006109           JUNCTION     0.87     2.64     9.26     0  02:04        2.64
  WS02006110           JUNCTION     0.84     2.44     9.03     0  02:12        2.44
  WS02006111           JUNCTION     0.33     1.80     8.51     0  02:12        1.80
  WS02006112           JUNCTION     0.90     2.56     8.44     0  02:12        2.56
  WS02006113           JUNCTION     0.42     1.87     8.76     0  02:12        1.85
  WS02006115           JUNCTION     0.62     2.06     8.19     0  02:12        2.06
  WS02006116           JUNCTION     0.69     2.05     8.09     0  02:12        2.05
  WS02006228           JUNCTION     0.90     3.03     9.68     0  02:12        3.03
  WS02006229           JUNCTION     0.89     3.25     9.94     0  02:12        3.25
  WS02006230           JUNCTION     0.84     2.65     9.39     0  01:59        2.65
  WS02006231           JUNCTION     0.61     2.21     9.33     0  02:12        2.21
  WS02006232           JUNCTION     0.72     2.18     9.22     0  02:00        2.18
  WS02006234           JUNCTION     0.62     1.96     9.12     0  01:58        1.96
  WS02006235           JUNCTION     0.64     2.00     9.16     0  02:20        2.00
  WS02006238           JUNCTION     0.66     1.95     9.09     0  02:27        1.93
  WS02006239           JUNCTION     0.62     1.81     9.02     0  02:04        1.81
  WS02006240           JUNCTION     0.57     1.66     8.95     0  02:04        1.66
  WS02006242           JUNCTION     0.64     1.55     8.82     0  01:56        1.55
  WS02006243           JUNCTION     0.52     1.48     8.90     0  02:20        1.48
  WS02006245           JUNCTION     0.51     1.37     8.85     0  02:20        1.37
  WS02006247           JUNCTION     0.54     1.23     8.73     0  01:57        1.23
  WS02006248           JUNCTION     0.48     1.10     8.69     0  01:46        1.10
  WS02006249           JUNCTION     0.52     1.09     8.69     0  01:41        1.09
  WS02006251           JUNCTION     0.57     2.14     9.81     0  02:12        2.14
  WS02006252           JUNCTION     0.43     1.50     9.74     0  00:00        1.50
  WS02006253           JUNCTION     0.62     3.06    10.71     0  02:12        3.06
  WS02006256           JUNCTION     0.87     2.35     9.28     0  00:00        2.35
  WS02006280           JUNCTION     0.18     1.77    10.04     0  02:12        1.77
  WS02006284           JUNCTION     0.45     1.95    10.34     0  02:12        1.94
  WS02006287           JUNCTION     0.19     1.74    10.69     0  02:14        1.73
  WSF200               JUNCTION     0.21     0.52     5.76     0  02:14        0.52
  YS02001580           JUNCTION     0.05     1.05     9.59     0  02:02        0.77
  YS02001583           JUNCTION     0.08     1.14     9.64     0  02:02        0.82
  YS02001586           JUNCTION     0.12     1.13     9.30     0  02:02        1.13
  YS02001590           JUNCTION     0.19     1.40     9.26     0  02:02        1.40
  YS02001593           JUNCTION     0.13     1.34     9.20     0  02:02        1.29
  YS02001596           JUNCTION     0.18     1.79     9.21     0  02:20        1.79
  YS02001600           JUNCTION     0.22     1.87     9.00     0  02:02        1.87
  YS02001601           JUNCTION     0.39     2.06     8.90     0  02:02        2.06
  YS02001602           JUNCTION     0.32     1.87     8.77     0  02:05        1.87
  YS02001605           JUNCTION     0.30     1.78     8.68     0  02:07        1.78
  YS02001607           JUNCTION     0.31     1.65     8.50     0  02:12        1.64
  YS02001610           JUNCTION     0.35     1.68     8.48     0  02:06        1.68
  YS02001613           JUNCTION     0.31     1.68     8.52     0  02:20        1.67
  YS02001616           JUNCTION     0.25     1.61     8.52     0  02:06        1.61
  YS02001619           JUNCTION     0.23     1.61     8.54     0  02:12        1.61
  YS02001622           JUNCTION     0.22     1.61     8.52     0  02:12        1.61
  YS02001625           JUNCTION     0.47     1.78     8.38     0  02:05        1.78
  YS02001629           JUNCTION     0.31     1.85     8.40     0  02:07        1.85
  YS02001633           JUNCTION     0.39     2.08     8.53     0  02:12        2.08
  YS02001641           JUNCTION     0.39     2.03     8.47     0  02:20        1.94
  YS02001644           JUNCTION     0.39     1.92     8.35     0  02:08        1.92
  YS02001647           JUNCTION     0.20     1.77     8.38     0  02:12        1.74
  YS02001649           JUNCTION     0.23     2.00     8.39     0  02:11        1.96
  YS02001652           JUNCTION     0.14     1.87     8.47     0  02:11        1.81
  YS02001655           JUNCTION     0.11     1.70     8.55     0  02:11        1.60
  YS02001658           JUNCTION     0.08     1.51     8.65     0  02:08        1.34
  YS02001661           JUNCTION     0.12     1.40     8.80     0  02:11        1.11
  YS02001664           JUNCTION     0.04     0.52     8.44     0  02:11        0.50
  YS02001745           JUNCTION     0.04     0.80     8.31     0  02:12        0.78
  YS02001748           JUNCTION     0.08     1.46     8.54     0  02:09        1.23
  YS02001751           JUNCTION     0.10     1.55     8.43     0  02:12        1.55
  YS02001754           JUNCTION     0.13     1.80     8.41     0  02:12        1.80
  YS02001757           JUNCTION     0.25     2.03     8.29     0  02:12        2.01
  YS02001759           JUNCTION     0.20     2.21     8.57     0  02:12        2.21
  YS02001762           JUNCTION     0.20     2.15     8.55     0  02:12        2.15
  YS02001765           JUNCTION     0.18     2.10     8.55     0  02:12        2.10
  YS02001767           JUNCTION     0.18     2.03     8.52     0  02:12        2.03
  YS02001770           JUNCTION     0.19     1.95     8.44     0  02:12        1.95
  YS02001774           JUNCTION     0.25     2.03     8.45     0  02:12        2.03
  YS02001779           JUNCTION     0.11     1.68     8.37     0  02:06        1.68
  YS02001783           JUNCTION     0.16     1.27     7.41     0  02:20        1.23
  YS02001784           JUNCTION     0.18     1.25     7.32     0  02:20        1.25
  YS02001786           JUNCTION     0.15     0.91     6.94     0  02:20        0.87
  YS02001788           JUNCTION     0.11     0.62     6.60     0  02:13        0.62
  YS02001790           JUNCTION     0.13     0.72     6.37     0  02:13        0.71
  YS02001791           JUNCTION     0.08     0.44     5.91     0  02:08        0.43
  YS02001793           JUNCTION     0.04     0.27     5.10     0  02:22        0.25
  YS02001882           JUNCTION     0.21     1.75     8.47     0  02:12        1.75
  YS02001884           JUNCTION     0.30     1.86     8.48     0  02:12        1.86
  YS02001887           JUNCTION     0.37     1.97     8.51     0  02:12        1.97
  YS02001890           JUNCTION     0.40     1.81     8.32     0  02:07        1.81
  YS02001895           JUNCTION     0.18     1.58     8.33     0  02:20        1.56
  YS02001898           JUNCTION     0.19     1.59     8.33     0  02:20        1.56
  YS02001901           JUNCTION     0.30     1.72     8.32     0  02:12        1.72
  YS02001904           JUNCTION     0.28     1.68     8.31     0  02:12        1.68
  YS02001907           JUNCTION     0.58     1.96     8.25     0  02:07        1.96
  YS02001910           JUNCTION     0.39     2.00     8.50     0  02:12        2.00
  YS02001915           JUNCTION     0.21     2.00     8.72     0  02:12        2.00
  YS02001918           JUNCTION     0.10     1.81     8.88     0  02:07        1.81
  YS02001920           JUNCTION     0.18     2.11     9.12     0  02:07        1.74
  YS02001923           JUNCTION     0.07     2.03     9.29     0  02:07        1.44
  YS02001926           JUNCTION     0.11     1.90     9.35     0  02:07        1.24
  YS02001929           JUNCTION     0.06     1.78     9.47     0  02:07        1.13
  YS02006553           JUNCTION     0.59     2.03     8.32     0  02:12        2.03
  YS02006556           JUNCTION     0.56     2.06     8.37     0  02:20        2.05
  YS02006558           JUNCTION     0.61     2.22     8.49     0  02:12        2.22
  YS02006561           JUNCTION     0.10     0.97     7.63     0  02:20        0.89
  YS02163301           JUNCTION     0.34     1.97     8.49     0  02:20        1.92
  YS02163601           JUNCTION     0.43     2.08     8.48     0  02:20        2.02
  YS02164001           JUNCTION     0.37     2.07     8.53     0  02:20        1.94
  YSB1154              JUNCTION     0.33     2.10    11.16     0  02:04        2.10
  YSB1171              JUNCTION     0.47     1.95    10.85     0  02:04        1.95
  YSB1174              JUNCTION     0.29     1.95    11.06     0  02:04        1.95
  YSB6556              JUNCTION     0.23     1.80    10.97     0  02:04        1.80
  CC-1                 OUTFALL      0.00     0.00     0.00     0  00:00        0.00
  CC-2                 OUTFALL      0.00     0.00     0.00     0  00:00        0.00
  JK-1                 OUTFALL      0.00     0.00     0.00     0  00:00        0.00
  JK-2                 OUTFALL      0.00     0.00     0.00     0  00:00        0.00
  WSC                  OUTFALL      0.28     0.52     1.19     0  02:17        0.52
  CC-storage           STORAGE      0.81     1.75     7.25     0  02:38        1.75
  JK-storage           STORAGE      1.36     4.00     4.80     0  02:23        3.98
  XR-storage           STORAGE      7.97     9.26     7.26     0  08:00        9.26
  
  
  *******************
  Node Inflow Summary
  *******************
  
  -------------------------------------------------------------------------------------------------
                                  Maximum  Maximum                  Lateral       Total        Flow
                                  Lateral    Total  Time of Max      Inflow      Inflow     Balance
                                   Inflow   Inflow   Occurrence      Volume      Volume       Error
  Node                 Type           LPS      LPS  days hr:min    10^6 ltr    10^6 ltr     Percent
  -------------------------------------------------------------------------------------------------
  HS02004478           JUNCTION      0.00  2305.76     0  02:12           0        8.75      -0.013
  HS02004479           JUNCTION      0.00   405.11     0  02:07           0       0.856       0.077
  HS02004480           JUNCTION      0.00  2070.79     0  02:06           0         6.5       0.033
  HS02004770           JUNCTION   1569.44  1569.44     0  02:14        2.67        2.91       0.104
  HS02004777           JUNCTION      0.03   717.22     0  02:03    0.000864         1.9       0.275
  HS02004785           JUNCTION      0.15   735.82     0  02:03     0.00432         1.9       0.030
  HS02004788           JUNCTION    571.19   842.58     0  02:03        1.03        2.93      -0.015
  HS02004792           JUNCTION   1912.85  2724.62     0  02:14        3.46        6.39       0.005
  HS02004799           JUNCTION    359.43  1723.03     0  02:05        0.58        5.84       0.047
  HS02004802           JUNCTION      0.00  1233.16     0  02:15           0        2.38       0.165
  HS02004807           JUNCTION    450.25  1471.60     0  02:14        0.71        2.46       0.174
  HS02004817           JUNCTION      0.60  1027.56     0  02:14      0.0173        1.81       0.921
  HS02004824           JUNCTION    606.32  1026.64     0  02:14        1.26        1.98       0.019
  HS02004830           JUNCTION      0.15   588.04     0  02:04     0.00432       0.918       0.137
  HS02004837           JUNCTION    414.60   776.35     0  02:04       0.856        1.26       0.061
  HS02004842           JUNCTION      0.00   775.77     0  02:06           0       0.742       1.781
  HS02004848           JUNCTION    552.07  1026.77     0  02:06        1.22        1.79      -0.033
  HS02004852           JUNCTION      0.00   997.78     0  02:06           0        1.64      -0.048
  HS02004856           JUNCTION    182.70  1058.60     0  02:06       0.293        1.93       0.061
  HS02004862           JUNCTION    253.98  1159.61     0  02:06       0.518        2.45       0.036
  HS02004870           JUNCTION    244.47  1220.63     0  02:13       0.389        2.84      -0.005
  HS02004876           JUNCTION    240.95  1459.44     0  02:13       0.403        3.24       0.024
  HS02004881           JUNCTION    133.20  1593.56     0  02:13       0.205        3.45       0.007
  HS02004901           JUNCTION    377.91   639.39     0  02:13       0.598       0.935       0.192
  WS02001211           JUNCTION      7.35   203.46     0  02:53       0.212        5.44       0.611
  WS02001212           JUNCTION      0.00   209.60     0  02:53           0        5.41       0.291
  WS02001213           JUNCTION      0.00   213.80     0  02:52           0        5.39       0.333
  WS02003059           JUNCTION      0.00   218.59     0  02:52           0        5.38       0.597
  WS02003060           JUNCTION     16.53  1511.28     0  02:15       0.476        16.3       0.090
  WS02003066           JUNCTION      0.00  1310.44     0  02:13           0        10.5       0.015
  WS02003067           JUNCTION      0.00  1310.00     0  02:14           0        10.5       0.042
  WS02003069           JUNCTION      0.32  1510.82     0  02:15     0.00922        16.3       0.096
  WS02003072           JUNCTION      0.00  1510.67     0  02:16           0        16.3       0.129
  WS02003073           JUNCTION      1.82  1512.56     0  02:16      0.0524        16.3       0.134
  WS02004138           JUNCTION      0.00   380.00     0  00:00           0        5.25       0.052
  WS02004139           JUNCTION      0.32   190.32     0  00:33     0.00924        5.26       0.509
  WS02004401           JUNCTION      0.00  1309.93     0  02:13           0        10.6       0.100
  WS02004402           JUNCTION      0.00  1310.54     0  02:13           0        10.6       0.102
  WS02004403           JUNCTION      0.00  1311.21     0  02:13           0        10.6       0.099
  WS02004404           JUNCTION      0.16  1311.44     0  02:12     0.00467        10.6       0.086
  WS02004405           JUNCTION      0.04  1314.06     0  02:12      0.0011        10.6       0.117
  WS02004406           JUNCTION      0.00  1316.39     0  02:12           0        10.6       0.202
  WS02004407           JUNCTION      0.00  1316.92     0  02:12           0        10.5       0.015
  WS02004409           JUNCTION      0.00  1309.91     0  02:14           0        10.5       0.032
  WS02004410           JUNCTION      0.00  1310.24     0  02:14           0        10.5       0.049
  WS02004411           JUNCTION      0.00  1310.23     0  02:14           0        10.5       0.060
  WS02004412           JUNCTION      0.00  1310.05     0  02:13           0        10.5       0.078
  WS02004413           JUNCTION      0.00  1309.99     0  02:13           0        10.5       0.137
  WS02006109           JUNCTION      1.23  1290.90     0  02:12      0.0354        10.4       0.098
  WS02006110           JUNCTION      0.00  1124.33     0  02:30           0        10.2       0.080
  WS02006111           JUNCTION      0.00  1124.41     0  02:30           0        10.2       0.004
  WS02006112           JUNCTION    306.86  1310.25     0  02:13       0.491        10.6       0.180
  WS02006113           JUNCTION      0.00  1124.49     0  02:30           0        10.2       0.025
  WS02006115           JUNCTION      0.00  1310.37     0  02:13           0        10.6       0.068
  WS02006116           JUNCTION      0.00  1309.98     0  02:13           0        10.6       0.048
  WS02006228           JUNCTION      0.00  1288.87     0  02:13           0        10.4       0.049
  WS02006229           JUNCTION      0.00  2305.59     0  02:12           0        12.8       0.059
  WS02006230           JUNCTION     10.28  1028.27     0  02:12       0.296        6.45       0.157
  WS02006231           JUNCTION      0.00   454.41     0  02:20           0        5.21      -0.091
  WS02006232           JUNCTION      0.00   453.42     0  02:10           0        5.22       0.105
  WS02006234           JUNCTION      0.00   453.22     0  02:11           0        5.21      -0.071
  WS02006235           JUNCTION      0.00   419.31     0  03:43           0        5.09       0.110
  WS02006238           JUNCTION      0.00   419.28     0  03:42           0        5.08      -0.055
  WS02006239           JUNCTION      0.00   419.28     0  03:42           0        5.07      -0.075
  WS02006240           JUNCTION      0.00   419.26     0  03:42           0        5.06       0.009
  WS02006242           JUNCTION      0.00   419.26     0  03:42           0        5.06       0.021
  WS02006243           JUNCTION      0.00   419.24     0  03:42           0        4.71       0.020
  WS02006245           JUNCTION      0.00   419.42     0  03:41           0        4.72       0.158
  WS02006247           JUNCTION      0.00   419.67     0  03:41           0        4.72       0.010
  WS02006248           JUNCTION      0.00   419.63     0  03:41           0        4.96      -0.010
  WS02006249           JUNCTION      0.00  1361.47     0  02:13           0        8.12       0.081
  WS02006251           JUNCTION      0.08  1628.94     0  02:13     0.00222        8.25      -0.020
  WS02006252           JUNCTION      0.00   668.57     0  02:13           0        5.28      -0.210
  WS02006253           JUNCTION     34.78  1628.28     0  02:13      0.0496        3.53       0.014
  WS02006256           JUNCTION      0.00   300.00     0  00:00           0       0.107      -0.618
  WS02006280           JUNCTION      0.00  2304.69     0  02:12           0        8.73       0.002
  WS02006284           JUNCTION      0.10  2304.20     0  02:12     0.00275        8.73       0.003
  WS02006287           JUNCTION      0.00  2304.69     0  02:12           0        8.73       0.010
  WSF200               JUNCTION      0.00  1310.49     0  02:14           0        10.5       0.007
  YS02001580           JUNCTION      0.00    76.79     0  02:02           0     0.00392      -1.468
  YS02001583           JUNCTION      0.00   138.38     0  02:02           0       0.015      -5.658
  YS02001586           JUNCTION    697.01   697.04     0  02:15        1.64        1.65       0.070
  YS02001590           JUNCTION      0.00   318.88     0  02:12           0        1.32      -0.021
  YS02001593           JUNCTION      0.00   319.79     0  02:12           0        1.32       0.007
  YS02001596           JUNCTION      0.00   318.04     0  02:28           0        1.32      -0.002
  YS02001600           JUNCTION      0.00   318.47     0  02:20           0        1.32       0.015
  YS02001601           JUNCTION   1233.28  1550.99     0  02:14        2.27         3.6       0.022
  YS02001602           JUNCTION      0.00   501.84     0  02:01           0        2.28       0.018
  YS02001605           JUNCTION      0.00   501.27     0  02:01           0        2.16       0.020
  YS02001607           JUNCTION      0.00   500.04     0  02:01           0        2.16       0.092
  YS02001610           JUNCTION      0.00   666.16     0  02:15           0        2.34       0.097
  YS02001613           JUNCTION      0.00   501.40     0  02:01           0        1.89       0.090
  YS02001616           JUNCTION      0.00   498.91     0  02:01           0        1.89       0.020
  YS02001619           JUNCTION   1238.22  1238.22     0  02:15        2.63        4.34      -0.000
  YS02001622           JUNCTION      0.00   925.20     0  02:12           0        4.16       0.003
  YS02001625           JUNCTION      0.00  1302.56     0  02:14           0        4.36       0.214
  YS02001629           JUNCTION      0.00   918.02     0  02:05           0        3.38       0.014
  YS02001633           JUNCTION    927.69  1329.23     0  02:05        1.66        4.83       0.074
  YS02001641           JUNCTION      0.00  1324.34     0  02:05           0        4.63       0.062
  YS02001644           JUNCTION    828.08  1693.62     0  02:06        1.44        6.06       0.056
  YS02001647           JUNCTION      0.00  1694.12     0  02:06           0        5.68       0.006
  YS02001649           JUNCTION      0.00  1882.80     0  02:05           0           7       0.004
  YS02001652           JUNCTION      0.00   830.38     0  02:13           0        1.31      -0.069
  YS02001655           JUNCTION      0.15   830.41     0  02:13     0.00443        1.31      -0.030
  YS02001658           JUNCTION      0.00   830.63     0  02:13           0        1.31       0.001
  YS02001661           JUNCTION      0.00   890.85     0  02:11           0        1.31       0.006
  YS02001664           JUNCTION    804.09   804.09     0  02:14        1.31        1.31      -0.005
  YS02001745           JUNCTION    510.86   510.86     0  02:13       0.795       0.795       0.160
  YS02001748           JUNCTION      0.04   527.27     0  02:09      0.0013       0.795      -0.289
  YS02001751           JUNCTION      0.01   518.46     0  02:13    0.000317       0.802       0.117
  YS02001754           JUNCTION      0.26   518.42     0  02:13     0.00749       0.816      -0.150
  YS02001757           JUNCTION      0.00  3113.26     0  02:12           0        10.4       0.020
  YS02001759           JUNCTION    710.23  1303.72     0  02:12         1.1        2.63      -0.003
  YS02001762           JUNCTION      0.00   701.51     0  02:10           0        1.53       0.012
  YS02001765           JUNCTION      0.00   701.24     0  02:10           0        1.53       0.009
  YS02001767           JUNCTION      0.54   701.38     0  02:10      0.0154        1.53       0.018
  YS02001770           JUNCTION   1003.77  1003.77     0  02:14        1.68        1.72       0.024
  YS02001774           JUNCTION      0.00   471.80     0  02:13           0       0.221       0.561
  YS02001779           JUNCTION      0.01   471.90     0  02:13    0.000144       0.177      -0.555
  YS02001783           JUNCTION      0.00  1167.76     0  02:12           0        4.07       0.006
  YS02001784           JUNCTION      1.06  1168.76     0  02:12      0.0305         4.1       0.013
  YS02001786           JUNCTION      0.06  1169.55     0  02:12     0.00162         4.1       0.016
  YS02001788           JUNCTION      0.07  1170.40     0  02:12     0.00204         4.1       0.008
  YS02001790           JUNCTION      0.15  1176.95     0  02:13     0.00446         4.1       0.027
  YS02001791           JUNCTION      0.00  1285.55     0  02:13           0         4.1      -0.030
  YS02001793           JUNCTION      0.00  1245.71     0  02:13           0         4.1       0.007
  YS02001882           JUNCTION      0.00    32.46     0  02:04           0      0.0128       5.721
  YS02001884           JUNCTION      0.00    50.88     0  02:04           0      0.0487       5.460
  YS02001887           JUNCTION    765.96   767.63     0  02:13        1.15        1.18       0.387
  YS02001890           JUNCTION      0.00   766.36     0  02:13           0        1.14       0.448
  YS02001895           JUNCTION      0.00   517.65     0  02:16           0        1.07       0.153
  YS02001898           JUNCTION      0.00   518.33     0  02:16           0        1.06       0.022
  YS02001901           JUNCTION      0.00   517.85     0  02:16           0        1.07       0.308
  YS02001904           JUNCTION      0.00   518.17     0  02:17           0        1.07       0.262
  YS02001907           JUNCTION      0.00  1862.39     0  02:14           0        3.58       0.497
  YS02001910           JUNCTION      0.00  1345.32     0  02:14           0        2.51       0.285
  YS02001915           JUNCTION    895.48  1344.94     0  02:14        1.59        2.55       0.065
  YS02001918           JUNCTION      0.00   452.63     0  02:14           0       0.974       0.009
  YS02001920           JUNCTION      2.87   452.57     0  02:14      0.0827       0.961       0.105
  YS02001923           JUNCTION      0.04   449.41     0  02:14     0.00109       0.864      -0.006
  YS02001926           JUNCTION      0.05   448.66     0  02:14      0.0015       0.847       0.038
  YS02001929           JUNCTION    435.69   435.69     0  02:14       0.839       0.839      -0.071
  YS02006553           JUNCTION      0.00   799.54     0  02:29           0        2.43       0.491
  YS02006556           JUNCTION      0.00   799.94     0  02:29           0        2.44       0.329
  YS02006558           JUNCTION   1025.70  1166.09     0  02:20        1.68         4.1       0.092
  YS02006561           JUNCTION      0.00  1167.31     0  02:12           0        4.07      -0.002
  YS02163301           JUNCTION      0.00   916.60     0  02:05           0        3.38       0.046
  YS02163601           JUNCTION      0.11  1328.23     0  02:05     0.00317        4.62       0.106
  YS02164001           JUNCTION      0.00  1326.92     0  02:05           0        4.62       0.051
  YSB1154              JUNCTION    414.18   414.18     0  02:14       0.693       0.694       0.211
  YSB1171              JUNCTION      0.00   993.48     0  02:13           0        1.32       0.472
  YSB1174              JUNCTION    360.26   360.26     0  02:13       0.528       0.528       0.228
  YSB6556              JUNCTION      0.00   414.14     0  02:14           0       0.694       0.148
  CC-1                 OUTFALL       0.00   683.00     0  00:00           0        3.56       0.000
  CC-2                 OUTFALL       0.00   683.00     0  00:00           0        2.55       0.000
  JK-1                 OUTFALL       0.00  1000.00     0  00:00           0        2.28       0.000
  JK-2                 OUTFALL       0.00  1000.00     0  00:00           0        1.82       0.000
  WSC                  OUTFALL       0.00  1513.14     0  02:17           0        16.3       0.000
  CC-storage           STORAGE       0.00  3113.30     0  02:10           0        12.7      -0.223
  JK-storage           STORAGE       0.00  1255.00     0  02:18           0        4.25      -0.369
  XR-storage           STORAGE     200.00   200.00     0  00:00        5.76        6.36       0.001
  
  
  **********************
  Node Surcharge Summary
  **********************
  
  Surcharging occurs when water rises above the top of the highest conduit.
  ---------------------------------------------------------------------
                                               Max. Height   Min. Depth
                                   Hours       Above Crown    Below Rim
  Node                 Type      Surcharged         Meters       Meters
  ---------------------------------------------------------------------
  HS02004478           JUNCTION        0.49          0.668        0.272
  HS02004479           JUNCTION        0.63          0.879        0.171
  HS02004480           JUNCTION        0.67          0.942        0.158
  HS02004770           JUNCTION        0.57          0.720        0.000
  HS02004777           JUNCTION        0.57          0.780        0.000
  HS02004785           JUNCTION        0.52          0.790        0.000
  HS02004788           JUNCTION        0.51          0.720        0.000
  HS02004792           JUNCTION        0.63          0.900        0.000
  HS02004799           JUNCTION        0.76          1.060        0.000
  HS02004802           JUNCTION        0.68          1.093        0.117
  HS02004807           JUNCTION        0.66          1.220        0.000
  HS02004817           JUNCTION        1.27          1.740        0.000
  HS02004824           JUNCTION        0.52          1.310        0.000
  HS02004830           JUNCTION        0.49          1.330        0.000
  HS02004837           JUNCTION        0.45          1.340        0.000
  HS02004842           JUNCTION        0.59          1.520        0.000
  HS02004848           JUNCTION        0.41          1.370        0.000
  HS02004852           JUNCTION        0.44          1.420        0.000
  HS02004856           JUNCTION        0.43          1.300        0.000
  HS02004862           JUNCTION        0.46          1.300        0.000
  HS02004870           JUNCTION        0.48          1.357        0.043
  HS02004876           JUNCTION        0.56          1.422        0.138
  HS02004881           JUNCTION        0.54          1.107        0.343
  HS02004901           JUNCTION        0.57          0.720        0.000
  WS02004401           JUNCTION        1.58          0.921        0.739
  WS02004402           JUNCTION        1.62          0.864        0.876
  WS02004403           JUNCTION        1.63          0.777        1.253
  WS02004404           JUNCTION        1.81          0.779        2.001
  WS02004405           JUNCTION        1.77          0.723        2.077
  WS02004406           JUNCTION        1.73          0.609        1.841
  WS02004409           JUNCTION        1.04          0.502        1.858
  WS02004410           JUNCTION        0.97          0.363        2.177
  WS02004411           JUNCTION        0.88          0.212        2.318
  WS02004412           JUNCTION        0.79          0.110        2.200
  WS02004413           JUNCTION        1.34          0.148        2.052
  WS02006109           JUNCTION        2.43          1.820        0.000
  WS02006110           JUNCTION        2.13          1.530        0.320
  WS02006111           JUNCTION        1.30          0.993        0.877
  WS02006112           JUNCTION        2.30          1.558        0.122
  WS02006113           JUNCTION        1.32          1.069        0.861
  WS02006115           JUNCTION        1.49          1.046        1.204
  WS02006116           JUNCTION        1.51          0.990        1.300
  WS02006228           JUNCTION        2.42          2.200        0.000
  WS02006229           JUNCTION        0.91          1.070        0.000
  WS02006230           JUNCTION        1.89          1.570        0.000
  WS02006231           JUNCTION        2.14          1.500        0.030
  WS02006232           JUNCTION        2.36          1.480        0.000
  WS02006234           JUNCTION        2.30          1.240        0.000
  WS02006235           JUNCTION        2.31          1.290        0.000
  WS02006238           JUNCTION        2.32          1.229        0.201
  WS02006239           JUNCTION        2.30          1.068        0.222
  WS02006240           JUNCTION        2.29          0.949        0.441
  WS02006242           JUNCTION        2.31          0.820        0.000
  WS02006243           JUNCTION        2.26          0.770        0.000
  WS02006245           JUNCTION        2.26          0.657        0.193
  WS02006247           JUNCTION        2.26          0.519        0.241
  WS02006248           JUNCTION        2.24          0.380        0.000
  WS02006249           JUNCTION        2.24          0.390        0.000
  WS02006251           JUNCTION        2.18          1.111        0.069
  WS02006252           JUNCTION        2.32          1.100        0.000
  WS02006253           JUNCTION        2.19          2.021        0.459
  WS02006256           JUNCTION        7.99          2.050        0.000
  WS02006280           JUNCTION        0.78          0.722        0.058
  WS02006284           JUNCTION        0.70          0.666        0.134
  WS02006287           JUNCTION        0.60          0.738        0.152
  YS02001580           JUNCTION        0.61          0.450        0.000
  YS02001583           JUNCTION        0.62          0.500        0.000
  YS02001586           JUNCTION        0.75          0.510        0.000
  YS02001590           JUNCTION        0.83          0.750        0.000
  YS02001593           JUNCTION        0.84          0.719        0.121
  YS02001596           JUNCTION        0.96          1.057        0.013
  YS02001600           JUNCTION        1.13          1.190        0.000
  YS02001601           JUNCTION        1.44          1.440        0.000
  YS02001602           JUNCTION        1.34          1.270        0.000
  YS02001605           JUNCTION        1.30          1.179        0.001
  YS02001607           JUNCTION        0.83          0.654        0.026
  YS02001610           JUNCTION        0.86          0.680        0.000
  YS02001613           JUNCTION        0.82          0.680        0.020
  YS02001616           JUNCTION        0.78          0.610        0.000
  YS02001619           JUNCTION        0.77          0.610        0.000
  YS02001622           JUNCTION        0.77          0.615        0.005
  YS02001625           JUNCTION        0.96          0.780        0.000
  YS02001629           JUNCTION        0.72          0.470        0.000
  YS02001633           JUNCTION        0.99          1.060        0.000
  YS02001641           JUNCTION        0.93          1.033        0.067
  YS02001644           JUNCTION        0.90          0.920        0.000
  YS02001647           JUNCTION        0.68          0.773        0.127
  YS02001649           JUNCTION        0.81          0.999        0.051
  YS02001652           JUNCTION        0.61          0.843        0.287
  YS02001655           JUNCTION        0.45          0.696        0.504
  YS02001658           JUNCTION        0.24          0.508        0.792
  YS02001661           JUNCTION        0.02          0.328        1.062
  YS02001748           JUNCTION        0.17          0.383        0.807
  YS02001751           JUNCTION        0.34          0.548        0.652
  YS02001754           JUNCTION        0.53          0.750        0.400
  YS02001757           JUNCTION        0.88          1.027        0.183
  YS02001759           JUNCTION        0.79          1.210        0.000
  YS02001762           JUNCTION        0.75          1.150        0.000
  YS02001765           JUNCTION        0.70          1.100        0.000
  YS02001767           JUNCTION        0.67          1.030        0.000
  YS02001770           JUNCTION        0.64          0.920        0.000
  YS02001774           JUNCTION        0.74          1.030        0.020
  YS02001779           JUNCTION        0.52          0.680        0.000
  YS02001783           JUNCTION        0.55          0.471        1.129
  YS02001784           JUNCTION        0.52          0.452        1.038
  YS02001786           JUNCTION        0.41          0.106        1.324
  YS02001882           JUNCTION        0.49          0.753        0.077
  YS02001884           JUNCTION        0.50          0.800        0.070
  YS02001887           JUNCTION        0.54          0.920        0.030
  YS02001890           JUNCTION        0.55          0.760        0.000
  YS02001895           JUNCTION        0.48          0.584        0.166
  YS02001898           JUNCTION        0.47          0.564        0.176
  YS02001901           JUNCTION        0.52          0.715        0.155
  YS02001904           JUNCTION        0.51          0.676        0.174
  YS02001907           JUNCTION        0.78          0.950        0.000
  YS02001910           JUNCTION        0.58          0.996        0.104
  YS02001915           JUNCTION        0.48          1.000        0.000
  YS02001918           JUNCTION        0.39          0.810        0.000
  YS02001920           JUNCTION        0.41          1.112        0.028
  YS02001923           JUNCTION        0.09          0.817        0.003
  YS02001926           JUNCTION        0.12          0.900        0.000
  YS02001929           JUNCTION        0.01          0.780        0.000
  YS02006553           JUNCTION        0.80          1.033        0.157
  YS02006556           JUNCTION        0.68          1.020        0.330
  YS02006558           JUNCTION        0.66          1.122        0.278
  YS02006561           JUNCTION        0.36          0.170        0.980
  YS02163301           JUNCTION        0.96          0.971        0.059
  YS02163601           JUNCTION        1.02          1.080        0.000
  YS02164001           JUNCTION        0.93          1.069        0.031
  YSB1154              JUNCTION        0.89          1.400        0.000
  YSB1171              JUNCTION        0.90          1.100        0.000
  YSB1174              JUNCTION        0.81          1.250        0.000
  YSB6556              JUNCTION        0.74          1.100        0.000
  
  
  *********************
  Node Flooding Summary
  *********************
  
  Flooding refers to all water that overflows a node, whether it ponds or not.
  --------------------------------------------------------------------------
                                                             Total   Maximum
                                 Maximum   Time of Max       Flood    Ponded
                        Hours       Rate    Occurrence      Volume     Depth
  Node                 Flooded       LPS   days hr:min    10^6 ltr    Meters
  --------------------------------------------------------------------------
  HS02004770              0.38   1065.20      0  02:14       0.673     0.000
  HS02004777              0.01     20.29      0  02:03       0.000     0.000
  HS02004785              0.01     77.90      0  02:03       0.000     0.000
  HS02004788              0.01    195.72      0  02:03       0.001     0.000
  HS02004792              0.38   1582.12      0  02:14       1.133     0.000
  HS02004799              0.20    217.73      0  02:12       0.085     0.000
  HS02004807              0.09    240.16      0  02:14       0.045     0.000
  HS02004817              0.01     23.51      0  02:06       0.000     0.000
  HS02004824              0.01     26.08      0  02:06       0.000     0.000
  HS02004830              0.01     29.63      0  02:06       0.000     0.000
  HS02004837              0.01     53.64      0  02:06       0.000     0.000
  HS02004842              0.01    167.50      0  02:06       0.001     0.000
  HS02004848              0.01    162.57      0  02:06       0.000     0.000
  HS02004852              0.01     32.22      0  02:06       0.000     0.000
  HS02004856              0.01     20.72      0  02:06       0.000     0.000
  HS02004862              0.01      6.32      0  02:06       0.000     0.000
  HS02004901              0.45    639.38      0  02:13       0.695     0.000
  WS02006109              0.43    287.50      0  02:13       0.257     0.000
  WS02006228              0.01      0.68      0  02:12       0.000     0.000
  WS02006229              0.01      0.72      0  02:12       0.000     0.000
  WS02006230              0.71    575.52      0  02:12       0.974     0.000
  WS02006232              0.17      1.48      0  02:20       0.000     0.000
  WS02006234              0.74    128.14      0  02:29       0.157     0.000
  WS02006235              0.01      0.59      0  02:20       0.000     0.000
  WS02006242              0.84    137.13      0  02:27       0.350     0.000
  WS02006243              0.01      0.09      0  02:20       0.000     0.000
  WS02006248              1.18    339.44      0  02:02       1.183     0.000
  WS02006249              1.98   1300.50      0  02:13       4.090     0.000
  WS02006252              0.48    667.89      0  02:13       0.568     0.000
  WS02006256              0.10    296.19      0  02:23       0.066     0.000
  YS02001580              0.01     18.41      0  02:02       0.000     0.000
  YS02001583              0.01     65.69      0  02:02       0.000     0.000
  YS02001586              0.48    379.44      0  02:15       0.316     0.000
  YS02001590              0.01      6.43      0  02:02       0.000     0.000
  YS02001600              0.01      2.80      0  02:02       0.000     0.000
  YS02001601              0.69   1152.93      0  02:14       1.318     0.000
  YS02001602              0.57     62.54      0  02:12       0.117     0.000
  YS02001610              0.50    665.73      0  02:15       0.624     0.000
  YS02001616              0.01     11.31      0  02:20       0.000     0.000
  YS02001619              0.01     15.47      0  02:20       0.000     0.000
  YS02001625              0.48   1302.01      0  02:14       1.175     0.000
  YS02001629              0.10     64.02      0  02:09       0.012     0.000
  YS02001633              0.01      1.87      0  02:12       0.000     0.000
  YS02001644              0.21    904.68      0  02:13       0.364     0.000
  YS02001759              0.01      1.05      0  02:12       0.000     0.000
  YS02001762              0.01      1.66      0  02:12       0.000     0.000
  YS02001765              0.01      1.36      0  02:12       0.000     0.000
  YS02001767              0.01      0.15      0  02:12       0.000     0.000
  YS02001770              0.01     34.34      0  02:20       0.000     0.000
  YS02001779              0.18    471.70      0  02:13       0.159     0.000
  YS02001890              0.18    250.76      0  02:13       0.071     0.000
  YS02001907              0.34   1723.87      0  02:14       1.137     0.000
  YS02001915              0.01      0.21      0  02:12       0.000     0.000
  YS02001918              0.01    100.09      0  02:07       0.001     0.000
  YS02001926              0.01     23.85      0  02:07       0.000     0.000
  YS02001929              0.01    226.60      0  02:07       0.001     0.000
  YS02163601              0.01     23.15      0  02:20       0.000     0.000
  YSB1154                 0.01      1.48      0  02:04       0.000     0.000
  YSB1171                 0.29    992.84      0  02:14       0.565     0.000
  YSB1174                 0.01      2.27      0  02:04       0.000     0.000
  YSB6556                 0.01      8.16      0  02:04       0.000     0.000
  
  
  **********************
  Storage Volume Summary
  **********************
  
  --------------------------------------------------------------------------------------------------
                         Average     Avg  Evap Exfil       Maximum     Max    Time of Max    Maximum
                          Volume    Pcnt  Pcnt  Pcnt        Volume    Pcnt     Occurrence    Outflow
  Storage Unit           1000 m3    Full  Loss  Loss       1000 m3    Full    days hr:min        LPS
  --------------------------------------------------------------------------------------------------
  CC-storage               2.252      35     0     0         4.868      76       0  02:38    1783.53
  JK-storage               0.068      23     0     0         0.201      69       0  02:23    2300.00
  XR-storage               0.956      66     0     0         1.111      77       0  08:00     380.00
  
  
  ***********************
  Outfall Loading Summary
  ***********************
  
  -----------------------------------------------------------
                         Flow       Avg       Max       Total
                         Freq      Flow      Flow      Volume
  Outfall Node           Pcnt       LPS       LPS    10^6 ltr
  -----------------------------------------------------------
  CC-1                  13.60    683.00    683.00       3.564
  CC-2                   9.15    683.00    683.00       2.550
  JK-1                   6.18   1000.00   1000.00       2.282
  JK-2                   4.70   1000.00   1000.00       1.820
  WSC                   99.97    538.80   1513.14      16.311
  -----------------------------------------------------------
  System                26.72   3904.80   1513.14      26.527
  
  
  ********************
  Link Flow Summary
  ********************
  
  -----------------------------------------------------------------------------
                                 Maximum  Time of Max   Maximum    Max/    Max/
                                  |Flow|   Occurrence   |Veloc|    Full    Full
  Link                 Type          LPS  days hr:min     m/sec    Flow   Depth
  -----------------------------------------------------------------------------
  1                    CONDUIT   1513.14     0  02:17      3.70    0.53    0.52
  HS02004478WS02006287 CONDUIT   2304.69     0  02:12      2.61    0.65    1.00
  HS02004479HS02004480 CONDUIT    403.77     0  02:07      0.58    0.39    1.00
  HS02004480HS02004478 CONDUIT   2068.38     0  02:05      2.95    8.71    1.00
  HS02004770HS02004777 CONDUIT    717.19     0  02:03      1.02    1.31    1.00
  HS02004777HS02004785 CONDUIT    735.67     0  02:03      1.10    0.91    1.00
  HS02004785HS02004788 CONDUIT    632.24     0  02:03      1.35    4.77    1.00
  HS02004788HS02004792 CONDUIT    815.31     0  02:13      1.45    0.54    1.00
  HS02004792HS02004799 CONDUIT   1568.26     0  02:05      2.24    0.96    1.00
  HS02004799HS02004480 CONDUIT   1721.26     0  02:05      2.46    2.17    1.00
  HS02004802HS02004478 CONDUIT   1233.29     0  02:15      1.76    1.09    1.00
  HS02004807HS02004802 CONDUIT   1233.16     0  02:15      1.76    2.35    1.00
  HS02004817HS02004807 CONDUIT   1027.89     0  02:14      1.47    0.61    1.00
  HS02004817HS02004824 CONDUIT   1026.96     0  02:14      1.47    0.46    1.00
  HS02004824HS02004830 CONDUIT    587.89     0  02:04      0.84    0.77    1.00
  HS02004830HS02004837 CONDUIT    601.02     0  02:04      0.95    0.60    1.00
  HS02004837HS02004842 CONDUIT    775.77     0  02:06      1.11    0.46    1.00
  HS02004842HS02004848 CONDUIT    775.65     0  02:06      1.21    0.45    1.00
  HS02004848HS02004852 CONDUIT    997.78     0  02:06      1.57    1.12    1.00
  HS02004852HS02004856 CONDUIT    969.05     0  02:06      1.46    1.11    1.00
  HS02004856HS02004862 CONDUIT   1045.19     0  02:06      1.67    1.04    1.00
  HS02004862HS02004870 CONDUIT   1007.70     0  02:06      1.74    1.09    1.00
  HS02004870HS02004876 CONDUIT   1221.16     0  02:13      1.74    0.81    1.00
  HS02004876HS02004881 CONDUIT   1460.36     0  02:13      2.27   15.53    1.00
  HS02004881HS02006253 CONDUIT   1593.57     0  02:13      2.28    0.31    1.00
  HS02004901HS02004770 CONDUIT    265.79     0  02:26      0.38    1.00    1.00
  WS02001211WS02001212 CONDUIT    209.60     0  02:53      0.54    0.16    0.69
  WS02001212WS02001213 CONDUIT    213.80     0  02:52      1.03    0.33    0.56
  WS02001213WS02003059 CONDUIT    218.59     0  02:52      0.47    0.36    0.90
  WS02003059WS02003060 CONDUIT    223.89     0  02:51      0.65    0.15    0.81
  WS02003060WS02003069 CONDUIT   1510.50     0  02:15      2.09    0.59    0.61
  WS02003066WSF200     CONDUIT   1310.49     0  02:14      3.25    0.22    0.39
  WS02003067WS02003066 CONDUIT   1310.44     0  02:13      2.01    0.42    0.56
  WS02003069WS02003072 CONDUIT   1510.67     0  02:16      1.90    0.73    0.66
  WS02003072WS02003073 CONDUIT   1510.74     0  02:16      2.05    3.26    0.62
  WS02004138WS02004139 CONDUIT    190.00     0  00:33      2.17    0.04    0.42
  WS02004139WS02001211 CONDUIT    196.11     0  02:53      0.54    0.25    0.61
  WS02004401WS02004402 CONDUIT   1310.54     0  02:13      1.67    1.57    1.00
  WS02004402WS02004403 CONDUIT   1311.21     0  02:13      1.67    1.88    1.00
  WS02004403WS02004404 CONDUIT   1311.28     0  02:12      1.67    0.95    1.00
  WS02004404WS02004405 CONDUIT   1314.02     0  02:12      1.67   12.87    1.00
  WS02004405WS02004406 CONDUIT   1316.39     0  02:12      1.68    2.60    1.00
  WS02004406WS02004407 CONDUIT   1316.92     0  02:12      1.70    0.59    0.97
  WS02004407WS02004409 CONDUIT   1309.91     0  02:14      1.73    0.46    0.97
  WS02004409WS02004410 CONDUIT   1310.24     0  02:14      1.67    1.69    1.00
  WS02004410WS02004411 CONDUIT   1310.23     0  02:14      1.67    1.79    1.00
  WS02004411WS02004412 CONDUIT   1310.05     0  02:13      1.67    1.86    1.00
  WS02004412WS02004413 CONDUIT   1309.99     0  02:13      1.67    0.88    1.00
  WS02004413WS02003067 CONDUIT   1310.00     0  02:14      2.02    0.56    0.77
  WS02006109WS02006110 CONDUIT   1124.33     0  02:30      2.24    2.16    1.00
  WS02006110WS02006113 CONDUIT   1124.49     0  02:30      2.24    1.02    1.00
  WS02006111WS02006112 CONDUIT   1124.58     0  02:30      2.24    0.53    1.00
  WS02006112WS02006115 CONDUIT   1310.37     0  02:13      1.67    0.77    1.00
  WS02006113WS02006111 CONDUIT   1124.41     0  02:30      2.68    1.35    1.00
  WS02006115WS02006116 CONDUIT   1309.98     0  02:13      1.67    1.68    1.00
  WS02006116WS02004401 CONDUIT   1309.93     0  02:13      1.67    1.81    1.00
  WS02006228WS02006109 CONDUIT   1289.67     0  02:12      2.57    5.63    1.00
  WS02006229WS02006228 CONDUIT   1288.87     0  02:13      2.56    4.27    1.00
  WS02006230WS02006229 CONDUIT   1017.99     0  02:12      2.65   22.65    1.00
  WS02006231WS02006230 CONDUIT    454.41     0  02:20      1.21    6.89    1.00
  WS02006232WS02006231 CONDUIT    453.42     0  02:10      1.18    0.95    1.00
  WS02006234WS02006232 CONDUIT    453.22     0  02:11      1.41    0.92    1.00
  WS02006235WS02006234 CONDUIT    419.50     0  03:41      1.21    4.43    1.00
  WS02006238WS02006235 CONDUIT    419.30     0  03:43      1.45    0.94    1.00
  WS02006239WS02006238 CONDUIT    419.28     0  03:42      1.11    1.34    1.00
  WS02006240WS02006239 CONDUIT    419.28     0  03:42      1.26    1.32    1.00
  WS02006242WS02006240 CONDUIT    419.26     0  03:42      1.14    1.67    1.00
  WS02006243WS02006242 CONDUIT    419.26     0  03:42      1.34    0.90    1.00
  WS02006245WS02006243 CONDUIT    419.24     0  03:42      1.39    1.24    1.00
  WS02006247WS02006245 CONDUIT    419.42     0  03:41      1.37    3.33    1.00
  WS02006248WS02006247 CONDUIT    419.67     0  03:41      1.38    0.91    1.00
  WS02006249WS02006248 CONDUIT    419.63     0  03:41      1.38    2.30    1.00
  WS02006251WS02006249 CONDUIT   1361.47     0  02:13      3.54    3.93    1.00
  WS02006252WS02006251 CONDUIT    409.26     0  02:03     18.43    1.50    1.00
  WS02006253WS02006251 CONDUIT   1628.87     0  02:13      4.23    4.88    1.00
  WS02006256WS02006235 CONDUIT    288.93     0  00:00      4.23    3.06    1.00
  WS02006280WS02006229 CONDUIT   2305.59     0  02:12      4.05    0.49    1.00
  WS02006284WS02006280 CONDUIT   2304.69     0  02:12      3.02    0.97    1.00
  WS02006287WS02006284 CONDUIT   2304.10     0  02:12      2.93    1.07    1.00
  WSF200WS02003060     CONDUIT   1310.96     0  02:14      2.29    0.29    0.50
  YS02001580YS02001583 CONDUIT     76.79     0  02:02      0.57    0.30    1.00
  YS02001583YS02001586 CONDUIT    138.38     0  02:02      0.58    0.21    1.00
  YS02001586YS02001590 CONDUIT    318.88     0  02:12      1.25    0.56    1.00
  YS02001590YS02001593 CONDUIT    319.79     0  02:12      1.13    2.01    1.00
  YS02001593YS02001596 CONDUIT    318.04     0  02:28      1.73    0.50    1.00
  YS02001596YS02001600 CONDUIT    318.47     0  02:20      1.25    0.62    1.00
  YS02001600YS02001601 CONDUIT    318.40     0  02:12      1.13    0.55    1.00
  YS02001601YS02001602 CONDUIT    501.84     0  02:01      1.77    1.81    1.00
  YS02001602YS02001605 CONDUIT    501.27     0  02:01      1.77   10.61    1.00
  YS02001605YS02001607 CONDUIT    500.04     0  02:01      1.77    2.74    1.00
  YS02001607YS02001610 CONDUIT    499.70     0  02:01      0.64    0.48    1.00
  YS02001610YS02001613 CONDUIT    501.40     0  02:01      0.64    0.58    1.00
  YS02001613YS02001616 CONDUIT    498.91     0  02:01      0.64    0.43    1.00
  YS02001616YS02001619 CONDUIT    498.73     0  02:02      0.66    0.87    1.00
  YS02001619YS02001622 CONDUIT    925.20     0  02:12      1.18    1.36    1.00
  YS02001622YS02001625 CONDUIT    925.18     0  02:12      1.18    0.49    1.00
  YS02001625YS02001629 CONDUIT    918.02     0  02:05      1.17    0.44    1.00
  YS02001629YS02163301 CONDUIT    916.60     0  02:05      1.17    1.13    1.00
  YS02001633YS02163601 CONDUIT   1328.12     0  02:05      1.69    1.39    1.00
  YS02001641YS02001644 CONDUIT   1325.07     0  02:05      1.69    4.28    1.00
  YS02001644YS02001647 CONDUIT   1694.12     0  02:06      2.19    1.00    1.00
  YS02001647YS02001649 CONDUIT   1700.17     0  02:06      2.30    0.90    1.00
  YS02001649YS02001757 CONDUIT   1851.97     0  02:05      2.43    1.12    1.00
  YS02001652YS02001649 CONDUIT    830.47     0  02:13      1.06    0.41    1.00
  YS02001655YS02001652 CONDUIT    830.38     0  02:13      1.28    0.40    1.00
  YS02001658YS02001655 CONDUIT    830.26     0  02:13      1.84    0.35    1.00
  YS02001661YS02001658 CONDUIT    830.63     0  02:13      2.23    0.33    1.00
  YS02001664YS02001661 CONDUIT    890.85     0  02:11      2.17    0.28    0.76
  YS02001745YS02001748 CONDUIT    527.22     0  02:09      2.08    0.20    0.90
  YS02001748YS02001751 CONDUIT    518.45     0  02:13      1.65    0.26    1.00
  YS02001751YS02001754 CONDUIT    518.16     0  02:13      1.39    0.25    1.00
  YS02001754YS02001757 CONDUIT    518.16     0  02:13      0.66    0.21    1.00
  YS02001757CaochengTiaoxuchi CONDUIT   3113.30     0  02:10      3.96    1.35    1.00
  YS02001759YS02001757 CONDUIT   1307.41     0  02:12      1.66    0.93    1.00
  YS02001762YS02001759 CONDUIT    702.15     0  02:10      0.89    0.81    1.00
  YS02001765YS02001762 CONDUIT    701.51     0  02:10      0.89    0.66    1.00
  YS02001767YS02001765 CONDUIT    701.24     0  02:10      0.89    0.88    1.00
  YS02001770YS02001767 CONDUIT    700.85     0  02:10      0.89    2.78    1.00
  YS02001774YS02001770 CONDUIT    471.80     0  02:13      0.60    0.30    1.00
  YS02001779YS02001774 CONDUIT    471.90     0  02:13      0.60    0.24    1.00
  YS02001783YS02001784 CONDUIT   1167.70     0  02:12      2.32    1.61    1.00
  YS02001784YS02001785 CONDUIT   1169.50     0  02:12      2.33    2.72    1.00
  YS02001786YS02001788 CONDUIT   1170.33     0  02:12      2.49    2.25    0.89
  YS02001788YS02001790 CONDUIT   1176.79     0  02:13      2.72    0.87    0.84
  YS02001790YS02001791 CONDUIT   1285.55     0  02:13      3.42    1.40    0.70
  YS02001791YS02001793 CONDUIT   1245.71     0  02:13      6.76    0.53    0.43
  YS02001793JiankangQianchi CONDUIT   1255.00     0  02:18      2.51    0.10    0.64
  YS02001882YS02001884 CONDUIT     32.46     0  02:04      0.13    0.04    1.00
  YS02001884YS02001887 CONDUIT     50.88     0  02:04      0.09    0.07    1.00
  YS02001887YS02001890 CONDUIT    766.36     0  02:13      0.98    1.31    1.00
  YS02001890YS02001895 CONDUIT    517.65     0  02:16      0.66    0.24    1.00
  YS02001895YS02001898 CONDUIT    518.33     0  02:16      0.66    0.90    1.00
  YS02001898YS02001901 CONDUIT    517.85     0  02:16      0.66    0.33    1.00
  YS02001901YS02001904 CONDUIT    518.17     0  02:17      0.66    0.80    1.00
  YS02001904YS02001907 CONDUIT    518.15     0  02:17      0.66    0.18    1.00
  YS02001907YS02006553 CONDUIT    799.54     0  02:29      0.89    0.94    1.00
  YS02001910YS02001907 CONDUIT   1345.82     0  02:14      1.71    0.76    1.00
  YS02001915YS02001910 CONDUIT   1345.32     0  02:14      1.71    0.67    1.00
  YS02001918YS02001915 CONDUIT    452.67     0  02:14      0.58    0.25    1.00
  YS02001920YS02001918 CONDUIT    452.63     0  02:14      0.65    0.44    1.00
  YS02001923YS02001920 CONDUIT    449.70     0  02:14      0.69    0.20    1.00
  YS02001926YS02001923 CONDUIT    449.37     0  02:14      0.95    0.64    1.00
  YS02001929YS02001926 CONDUIT    448.61     0  02:14      1.09    0.21    1.00
  YS02006553YS02006556 CONDUIT    799.94     0  02:29      1.02    0.68    1.00
  YS02006556YS02006558 CONDUIT    802.16     0  02:29      1.02    0.63    1.00
  YS02006558YS02006561 CONDUIT   1167.31     0  02:12      4.13    2.58    1.00
  YS02006561YS02001783 CONDUIT   1167.76     0  02:12      2.32    0.60    1.00
  YS02163301YS02001633 CONDUIT    915.51     0  02:05      1.17    0.86    1.00
  YS02163601YS02164001 CONDUIT   1326.92     0  02:05      1.69    1.18    1.00
  YS02164001YS02001641 CONDUIT   1324.34     0  02:05      1.69    1.81    1.00
  YSB1154YSB6556       CONDUIT    414.14     0  02:14      1.08    0.74    1.00
  YSB1171HS02004479    CONDUIT    405.11     0  02:07      0.81    0.27    1.00
  YSB1174YSB1171       CONDUIT    360.27     0  02:13      0.94    0.55    1.00
  YSB6556YSB1171       CONDUIT    414.38     0  02:14      1.08    0.43    1.00
  CC-R1                PUMP       683.00     0  00:00              1.00
  CC-R2                PUMP       683.00     0  00:00              1.00
  CC-S1                PUMP       200.00     0  00:00              1.00
  CC-S2                PUMP       200.00     0  00:00              1.00
  JK-R1                PUMP      1000.00     0  00:00              1.00
  JK-R2                PUMP      1000.00     0  00:00              1.00
  JK-S                 PUMP       300.00     0  00:00              1.00
  XR-1                 PUMP        95.00     0  00:00              1.00
  XR-2                 PUMP        95.00     0  00:00              1.00
  XR-3                 PUMP        95.00     0  00:00              1.00
  XR-4                 PUMP        95.00     0  00:00              1.00
  
  
  ***************************
  Flow Classification Summary
  ***************************
  
  -------------------------------------------------------------------------------------
                      Adjusted    ---------- Fraction of Time in Flow Class ---------- 
                       /Actual         Up    Down  Sub   Sup   Up    Down  Norm  Inlet 
  Conduit               Length    Dry  Dry   Dry   Crit  Crit  Crit  Crit  Ltd   Ctrl  
  -------------------------------------------------------------------------------------
  1                       1.00   0.00  0.00  0.00  0.00  1.00  0.00  0.00  0.52  0.00
  HS02004478WS02006287    1.00   0.14  0.00  0.00  0.69  0.17  0.00  0.00  0.59  0.00
  HS02004479HS02004480    1.00   0.05  0.00  0.00  0.95  0.00  0.00  0.00  0.11  0.00
  HS02004480HS02004478    1.00   0.13  0.00  0.00  0.67  0.00  0.00  0.21  0.00  0.00
  HS02004770HS02004777    1.00   0.00  0.13  0.00  0.87  0.00  0.00  0.00  0.03  0.00
  HS02004777HS02004785    1.00   0.00  0.00  0.00  1.00  0.00  0.00  0.00  0.12  0.00
  HS02004785HS02004788    1.00   0.00  0.00  0.00  1.00  0.00  0.00  0.00  0.00  0.00
  HS02004788HS02004792    1.00   0.00  0.00  0.00  1.00  0.00  0.00  0.00  0.90  0.00
  HS02004792HS02004799    1.00   0.00  0.00  0.00  0.99  0.01  0.00  0.00  0.86  0.00
  HS02004799HS02004480    1.00   0.00  0.05  0.00  0.86  0.00  0.08  0.00  0.00  0.00
  HS02004802HS02004478    1.00   0.13  0.00  0.00  0.87  0.00  0.00  0.00  0.02  0.00
  HS02004807HS02004802    1.00   0.13  0.00  0.00  0.87  0.00  0.00  0.01  0.00  0.00
  HS02004817HS02004807    1.00   0.00  0.13  0.00  0.87  0.00  0.00  0.00  0.01  0.00
  HS02004817HS02004824    1.00   0.00  0.00  0.00  1.00  0.00  0.00  0.00  0.81  0.00
  HS02004824HS02004830    1.00   0.00  0.00  0.00  1.00  0.00  0.00  0.00  0.01  0.00
  HS02004830HS02004837    1.00   0.00  0.00  0.00  1.00  0.00  0.00  0.00  0.88  0.00
  HS02004837HS02004842    1.00   0.00  0.00  0.00  1.00  0.00  0.00  0.00  0.11  0.00
  HS02004842HS02004848    1.00   0.00  0.13  0.00  0.87  0.00  0.00  0.00  0.55  0.00
  HS02004848HS02004852    1.00   0.13  0.00  0.00  0.87  0.00  0.00  0.00  0.70  0.00
  HS02004852HS02004856    1.00   0.13  0.00  0.00  0.87  0.00  0.00  0.00  0.67  0.00
  HS02004856HS02004862    1.00   0.00  0.14  0.00  0.86  0.00  0.00  0.00  0.74  0.00
  HS02004862HS02004870    1.00   0.00  0.00  0.00  1.00  0.00  0.00  0.00  0.03  0.00
  HS02004870HS02004876    1.00   0.00  0.00  0.00  0.98  0.02  0.00  0.00  0.85  0.00
  HS02004876HS02004881    1.00   0.02  0.00  0.00  0.85  0.13  0.00  0.00  0.00  0.00
  HS02004881HS02006253    1.00   0.00  0.08  0.00  0.79  0.01  0.00  0.12  0.53  0.00
  HS02004901HS02004770    1.00   0.13  0.00  0.00  0.87  0.00  0.00  0.00  0.00  0.00
  WS02001211WS02001212    1.00   0.00  0.03  0.00  0.97  0.00  0.00  0.00  0.00  0.00
  WS02001212WS02001213    1.00   0.03  0.00  0.00  0.39  0.00  0.58  0.00  0.00  0.00
  WS02001213WS02003059    1.00   0.00  0.00  0.00  1.00  0.00  0.00  0.00  0.00  0.00
  WS02003059WS02003060    1.00   0.00  0.00  0.00  1.00  0.00  0.00  0.00  0.03  0.00
  WS02003060WS02003069    1.00   0.00  0.00  0.00  0.97  0.03  0.00  0.00  0.29  0.00
  WS02003066WSF200        1.00   0.09  0.00  0.00  0.00  0.91  0.00  0.00  0.63  0.00
  WS02003067WS02003066    1.00   0.08  0.01  0.00  0.91  0.00  0.00  0.00  0.00  0.00
  WS02003069WS02003072    1.00   0.00  0.00  0.00  1.00  0.00  0.00  0.00  0.34  0.00
  WS02003072WS02003073    1.00   0.00  0.00  0.00  0.00  0.00  0.00  1.00  0.00  0.00
  WS02004138WS02004139    1.00   0.00  0.01  0.00  0.97  0.01  0.00  0.01  0.98  0.00
  WS02004139WS02001211    1.00   0.00  0.00  0.00  1.00  0.00  0.00  0.00  0.00  0.00
  WS02004401WS02004402    1.00   0.03  0.00  0.00  0.97  0.00  0.00  0.00  0.00  0.00
  WS02004402WS02004403    1.00   0.03  0.00  0.00  0.97  0.00  0.00  0.00  0.00  0.00
  WS02004403WS02004404    1.00   0.00  0.03  0.00  0.97  0.00  0.00  0.00  0.00  0.00
  WS02004404WS02004405    1.00   0.00  0.00  0.00  1.00  0.00  0.00  0.00  0.00  0.00
  WS02004405WS02004406    1.00   0.00  0.00  0.00  1.00  0.00  0.00  0.00  0.00  0.00
  WS02004406WS02004407    1.00   0.00  0.05  0.00  0.94  0.00  0.00  0.00  0.00  0.00
  WS02004407WS02004409    1.00   0.06  0.00  0.00  0.93  0.02  0.00  0.00  0.83  0.00
  WS02004409WS02004410    1.00   0.06  0.00  0.00  0.94  0.00  0.00  0.00  0.00  0.00
  WS02004410WS02004411    1.00   0.06  0.00  0.00  0.94  0.00  0.00  0.00  0.00  0.00
  WS02004411WS02004412    1.00   0.06  0.00  0.00  0.94  0.00  0.00  0.00  0.00  0.00
  WS02004412WS02004413    1.00   0.06  0.00  0.00  0.93  0.01  0.00  0.00  0.00  0.00
  WS02004413WS02003067    1.00   0.07  0.02  0.00  0.00  0.00  0.92  0.00  0.00  0.00
  WS02006109WS02006110    1.00   0.00  0.00  0.00  0.98  0.00  0.01  0.00  0.00  0.00
  WS02006110WS02006113    1.00   0.00  0.01  0.00  0.98  0.00  0.00  0.00  0.00  0.00
  WS02006111WS02006112    1.00   0.02  0.00  0.00  0.97  0.00  0.00  0.00  0.76  0.00
  WS02006112WS02006115    1.00   0.02  0.01  0.00  0.97  0.00  0.01  0.00  0.00  0.00
  WS02006113WS02006111    1.00   0.02  0.00  0.00  0.14  0.84  0.00  0.00  0.12  0.00
  WS02006115WS02006116    1.00   0.03  0.00  0.00  0.96  0.00  0.00  0.01  0.00  0.00
  WS02006116WS02004401    1.00   0.03  0.00  0.00  0.97  0.00  0.00  0.00  0.00  0.00
  WS02006228WS02006109    1.00   0.00  0.00  0.00  1.00  0.00  0.00  0.00  0.00  0.00
  WS02006229WS02006228    1.00   0.00  0.00  0.00  1.00  0.00  0.00  0.00  0.00  0.00
  WS02006230WS02006229    1.00   0.00  0.00  0.00  0.99  0.00  0.00  0.01  0.00  0.00
  WS02006231WS02006230    1.00   0.00  0.00  0.00  0.30  0.00  0.70  0.00  0.00  0.00
  WS02006232WS02006231    1.00   0.00  0.00  0.00  1.00  0.00  0.00  0.00  0.00  0.00
  WS02006234WS02006232    1.00   0.00  0.00  0.00  1.00  0.00  0.00  0.00  0.01  0.00
  WS02006235WS02006234    1.00   0.00  0.00  0.00  0.97  0.00  0.03  0.00  0.00  0.00
  WS02006238WS02006235    1.00   0.00  0.00  0.00  1.00  0.00  0.00  0.00  0.00  0.00
  WS02006239WS02006238    1.00   0.00  0.00  0.00  1.00  0.00  0.00  0.00  0.05  0.00
  WS02006240WS02006239    1.00   0.00  0.00  0.00  0.91  0.00  0.00  0.09  0.00  0.00
  WS02006242WS02006240    1.00   0.00  0.00  0.00  1.00  0.00  0.00  0.00  0.00  0.00
  WS02006243WS02006242    1.00   0.00  0.00  0.00  1.00  0.00  0.00  0.00  0.31  0.00
  WS02006245WS02006243    1.00   0.00  0.00  0.00  0.96  0.00  0.00  0.03  0.00  0.00
  WS02006247WS02006245    1.00   0.00  0.00  0.00  1.00  0.00  0.00  0.00  0.00  0.00
  WS02006248WS02006247    1.00   0.00  0.00  0.00  1.00  0.00  0.00  0.00  0.31  0.00
  WS02006249WS02006248    1.00   0.00  0.00  0.00  0.89  0.00  0.11  0.00  0.00  0.00
  WS02006251WS02006249    1.00   0.00  0.00  0.00  1.00  0.00  0.00  0.00  0.27  0.00
  WS02006252WS02006251    1.00   0.00  0.08  0.00  0.20  0.00  0.72  0.00  0.00  0.00
  WS02006253WS02006251    1.00   0.00  0.00  0.00  1.00  0.00  0.00  0.00  0.02  0.00
  WS02006256WS02006235    1.00   0.00  0.00  0.00  1.00  0.00  0.00  0.00  0.00  0.00
  WS02006280WS02006229    1.00   0.13  0.00  0.00  0.12  0.02  0.00  0.73  0.01  0.00
  WS02006284WS02006280    1.00   0.13  0.00  0.00  0.08  0.01  0.00  0.79  0.00  0.00
  WS02006287WS02006284    1.00   0.12  0.02  0.00  0.59  0.28  0.00  0.00  0.65  0.00
  WSF200WS02003060        1.00   0.00  0.09  0.00  0.64  0.26  0.00  0.00  0.56  0.00
  YS02001580YS02001583    1.00   0.23  0.62  0.00  0.15  0.00  0.00  0.00  0.65  0.00
  YS02001583YS02001586    1.00   0.31  0.50  0.00  0.19  0.00  0.00  0.00  0.65  0.00
  YS02001586YS02001590    1.00   0.13  0.00  0.00  0.46  0.06  0.00  0.35  0.37  0.00
  YS02001590YS02001593    1.00   0.13  0.00  0.00  0.09  0.00  0.78  0.00  0.00  0.00
  YS02001593YS02001596    1.00   0.13  0.00  0.00  0.11  0.01  0.00  0.76  0.02  0.00
  YS02001596YS02001600    1.00   0.13  0.00  0.00  0.16  0.02  0.00  0.69  0.04  0.00
  YS02001600YS02001601    1.00   0.13  0.00  0.00  0.87  0.00  0.00  0.00  0.60  0.00
  YS02001601YS02001602    1.00   0.13  0.00  0.00  0.87  0.00  0.00  0.00  0.00  0.00
  YS02001602YS02001605    1.00   0.13  0.00  0.00  0.87  0.00  0.00  0.00  0.00  0.00
  YS02001605YS02001607    1.00   0.13  0.00  0.00  0.87  0.00  0.00  0.00  0.00  0.00
  YS02001607YS02001610    1.00   0.13  0.00  0.00  0.87  0.00  0.00  0.00  0.01  0.00
  YS02001610YS02001613    1.00   0.13  0.00  0.00  0.87  0.00  0.00  0.00  0.00  0.00
  YS02001613YS02001616    1.00   0.13  0.00  0.00  0.87  0.00  0.00  0.00  0.00  0.00
  YS02001616YS02001619    1.00   0.13  0.00  0.00  0.87  0.00  0.00  0.00  0.00  0.00
  YS02001619YS02001622    1.00   0.13  0.00  0.00  0.87  0.00  0.00  0.00  0.29  0.00
  YS02001622YS02001625    1.00   0.13  0.00  0.00  0.87  0.00  0.00  0.00  0.04  0.00
  YS02001625YS02001629    1.00   0.13  0.02  0.00  0.12  0.00  0.73  0.00  0.00  0.00
  YS02001629YS02163301    1.00   0.13  0.00  0.00  0.86  0.00  0.00  0.00  0.00  0.00
  YS02001633YS02163601    1.00   0.00  0.00  0.00  1.00  0.00  0.00  0.00  0.15  0.00
  YS02001641YS02001644    1.00   0.00  0.00  0.00  1.00  0.00  0.00  0.00  0.00  0.00
  YS02001644YS02001647    1.00   0.00  0.14  0.00  0.86  0.00  0.00  0.00  0.00  0.00
  YS02001647YS02001649    1.00   0.00  0.14  0.00  0.46  0.39  0.00  0.00  0.56  0.00
  YS02001649YS02001757    1.00   0.00  0.00  0.00  0.78  0.22  0.00  0.00  0.42  0.00
  YS02001652YS02001649    1.00   0.00  0.00  0.00  0.98  0.02  0.00  0.00  0.73  0.00
  YS02001655YS02001652    1.00   0.00  0.00  0.00  0.15  0.01  0.00  0.84  0.06  0.00
  YS02001658YS02001655    1.00   0.00  0.13  0.00  0.70  0.17  0.00  0.00  0.68  0.00
  YS02001661YS02001658    1.00   0.13  0.00  0.00  0.47  0.40  0.00  0.00  0.66  0.00
  YS02001664YS02001661    1.00   0.13  0.00  0.00  0.78  0.09  0.00  0.00  0.85  0.00
  YS02001745YS02001748    1.00   0.00  0.00  0.00  0.08  0.00  0.00  0.92  0.04  0.00
  YS02001748YS02001751    1.00   0.00  0.00  0.00  0.85  0.15  0.00  0.00  0.75  0.00
  YS02001751YS02001754    1.00   0.00  0.00  0.00  0.13  0.01  0.00  0.86  0.04  0.00
  YS02001754YS02001757    1.00   0.00  0.00  0.00  1.00  0.00  0.00  0.00  0.80  0.00
  YS02001757CaochengTiaoxuchi    1.00   0.00  0.00  0.00  1.00  0.00  0.00  0.00  0.62  0.00
  YS02001759YS02001757    1.00   0.00  0.00  0.00  1.00  0.00  0.00  0.00  0.51  0.00
  YS02001762YS02001759    1.00   0.00  0.00  0.00  1.00  0.00  0.00  0.00  0.06  0.00
  YS02001765YS02001762    1.00   0.00  0.00  0.00  1.00  0.00  0.00  0.00  0.66  0.00
  YS02001767YS02001765    1.00   0.00  0.00  0.00  1.00  0.00  0.00  0.00  0.01  0.00
  YS02001770YS02001767    1.00   0.00  0.00  0.00  1.00  0.00  0.00  0.00  0.00  0.00
  YS02001774YS02001770    1.00   0.00  0.13  0.00  0.82  0.00  0.05  0.00  0.03  0.00
  YS02001779YS02001774    1.00   0.00  0.00  0.00  1.00  0.00  0.00  0.00  0.75  0.00
  YS02001783YS02001784    1.00   0.00  0.15  0.00  0.85  0.00  0.00  0.00  0.55  0.00
  YS02001784YS02001785    1.00   0.00  0.00  0.00  1.00  0.00  0.00  0.00  0.17  0.00
  YS02001786YS02001788    1.00   0.00  0.00  0.00  0.81  0.19  0.00  0.00  0.00  0.00
  YS02001788YS02001790    1.00   0.00  0.00  0.00  0.17  0.83  0.00  0.00  0.80  0.00
  YS02001790YS02001791    1.00   0.00  0.00  0.00  0.01  0.99  0.00  0.00  0.16  0.00
  YS02001791YS02001793    1.00   0.00  0.00  0.00  0.00  1.00  0.00  0.00  0.01  0.00
  YS02001793JiankangQianchi    1.00   0.00  0.00  0.00  0.98  0.02  0.00  0.00  0.97  0.00
  YS02001882YS02001884    1.00   0.13  0.00  0.00  0.86  0.00  0.00  0.00  0.00  0.00
  YS02001884YS02001887    1.00   0.09  0.03  0.00  0.88  0.00  0.00  0.00  0.00  0.00
  YS02001887YS02001890    1.00   0.00  0.00  0.00  0.96  0.00  0.04  0.00  0.00  0.00
  YS02001890YS02001895    1.00   0.00  0.14  0.00  0.86  0.00  0.00  0.00  0.00  0.00
  YS02001895YS02001898    1.00   0.14  0.00  0.00  0.85  0.00  0.01  0.00  0.00  0.00
  YS02001898YS02001901    1.00   0.14  0.00  0.00  0.86  0.00  0.00  0.00  0.01  0.00
  YS02001901YS02001904    1.00   0.14  0.00  0.00  0.86  0.00  0.00  0.00  0.00  0.00
  YS02001904YS02001907    1.00   0.00  0.14  0.00  0.86  0.00  0.00  0.00  0.00  0.00
  YS02001907YS02006553    1.00   0.00  0.03  0.00  0.97  0.00  0.00  0.00  0.00  0.00
  YS02001910YS02001907    1.00   0.00  0.00  0.00  0.96  0.01  0.00  0.03  0.12  0.00
  YS02001915YS02001910    1.00   0.00  0.00  0.00  0.97  0.03  0.00  0.00  0.16  0.00
  YS02001918YS02001915    1.00   0.00  0.00  0.00  0.97  0.03  0.00  0.00  0.74  0.00
  YS02001920YS02001918    1.00   0.00  0.00  0.00  1.00  0.00  0.00  0.00  0.00  0.00
  YS02001923YS02001920    1.00   0.00  0.00  0.00  1.00  0.00  0.00  0.00  0.92  0.00
  YS02001926YS02001923    1.00   0.00  0.11  0.00  0.04  0.00  0.85  0.00  0.00  0.00
  YS02001929YS02001926    1.00   0.00  0.13  0.00  0.87  0.00  0.00  0.00  0.82  0.00
  YS02006553YS02006556    1.00   0.01  0.00  0.00  0.99  0.00  0.00  0.00  0.03  0.00
  YS02006556YS02006558    1.00   0.00  0.00  0.00  1.00  0.00  0.00  0.00  0.00  0.00
  YS02006558YS02006561    1.00   0.15  0.00  0.00  0.04  0.81  0.00  0.00  0.18  0.00
  YS02006561YS02001783    1.00   0.15  0.00  0.00  0.06  0.79  0.00  0.00  0.68  0.00
  YS02163301YS02001633    1.00   0.00  0.13  0.00  0.87  0.00  0.00  0.00  0.00  0.00
  YS02163601YS02164001    1.00   0.00  0.11  0.00  0.89  0.00  0.00  0.00  0.00  0.00
  YS02164001YS02001641    1.00   0.00  0.11  0.00  0.89  0.00  0.00  0.00  0.05  0.00
  YSB1154YSB6556          1.00   0.13  0.00  0.00  0.87  0.00  0.00  0.00  0.02  0.00
  YSB1171HS02004479       1.00   0.05  0.00  0.00  0.92  0.00  0.00  0.02  0.10  0.00
  YSB1174YSB1171          1.00   0.07  0.04  0.00  0.88  0.00  0.00  0.00  0.00  0.00
  YSB6556YSB1171          1.00   0.06  0.07  0.00  0.87  0.00  0.00  0.00  0.00  0.00
  
  
  *************************
  Conduit Surcharge Summary
  *************************
  
  ----------------------------------------------------------------------------
                                                           Hours        Hours 
                         --------- Hours Full --------   Above Full   Capacity
  Conduit                Both Ends  Upstream  Dnstream   Normal Flow   Limited
  ----------------------------------------------------------------------------
  HS02004478WS02006287        0.49      0.49      0.67      0.01         0.01
  HS02004479HS02004480        0.67      0.67      0.70      0.01         0.01
  HS02004480HS02004478        0.60      0.67      0.60      1.69         0.60
  HS02004770HS02004777        0.57      0.57      0.57      0.11         0.07
  HS02004777HS02004785        0.52      0.52      0.57      0.01         0.01
  HS02004785HS02004788        0.51      0.52      0.51      1.44         0.47
  HS02004788HS02004792        0.51      0.51      0.63      0.01         0.01
  HS02004792HS02004799        0.63      0.63      0.76      0.01         0.01
  HS02004799HS02004480        0.67      0.67      0.76      0.86         0.01
  HS02004802HS02004478        0.62      0.62      0.69      0.10         0.01
  HS02004807HS02004802        0.66      0.66      0.68      0.26         0.27
  HS02004817HS02004807        0.66      0.66      1.27      0.01         0.01
  HS02004817HS02004824        0.52      0.52      1.27      0.01         0.01
  HS02004824HS02004830        0.49      0.49      0.52      0.01         0.01
  HS02004830HS02004837        0.45      0.45      0.49      0.01         0.01
  HS02004837HS02004842        0.45      0.45      0.59      0.01         0.01
  HS02004842HS02004848        0.41      0.41      0.59      0.01         0.01
  HS02004848HS02004852        0.41      0.41      0.44      0.02         0.01
  HS02004852HS02004856        0.44      0.44      0.46      0.01         0.01
  HS02004856HS02004862        0.43      0.43      0.46      0.01         0.01
  HS02004862HS02004870        0.46      0.46      0.48      0.17         0.18
  HS02004870HS02004876        0.48      0.48      0.56      0.01         0.01
  HS02004876HS02004881        0.54      0.56      0.54      1.47         0.54
  HS02004881HS02006253        0.54      0.54      2.19      0.01         0.01
  HS02004901HS02004770        0.57      0.57      0.57      0.01         0.01
  WS02003072WS02003073        0.01      0.01      0.01      2.92         0.01
  WS02004401WS02004402        1.58      1.58      1.62      1.41         1.41
  WS02004402WS02004403        1.62      1.62      1.63      1.58         1.57
  WS02004403WS02004404        1.63      1.63      1.81      0.01         0.02
  WS02004404WS02004405        1.77      1.81      1.77      5.53         1.77
  WS02004405WS02004406        1.73      1.77      1.73      2.20         1.73
  WS02004406WS02004407        0.01      0.01      1.73      0.01         0.01
  WS02004407WS02004409        0.01      0.01      1.04      0.01         0.01
  WS02004409WS02004410        0.97      1.04      0.97      1.48         0.97
  WS02004410WS02004411        0.88      0.97      0.88      1.53         0.88
  WS02004411WS02004412        0.79      0.88      0.79      1.57         0.79
  WS02004412WS02004413        0.79      0.79      1.34      0.01         0.01
  WS02004413WS02003067        0.01      0.01      1.34      0.01         0.01
  WS02006109WS02006110        2.13      2.13      2.47      2.13         0.01
  WS02006110WS02006113        1.32      1.32      2.45      0.31         0.01
  WS02006111WS02006112        1.30      1.30      2.64      0.01         0.01
  WS02006112WS02006115        1.49      1.49      2.30      0.01         0.01
  WS02006113WS02006111        1.31      1.32      1.31      1.39         1.31
  WS02006115WS02006116        1.50      1.50      1.51      1.47         1.46
  WS02006116WS02004401        1.58      1.58      1.58      1.54         1.53
  WS02006228WS02006109        2.43      2.47      2.43      3.65         2.43
  WS02006229WS02006228        2.42      2.44      2.42      2.59         2.42
  WS02006230WS02006229        2.50      2.54      2.51      5.50         1.40
  WS02006231WS02006230        1.89      1.89      2.18      5.30         1.04
  WS02006232WS02006231        2.14      2.14      2.36      0.01         0.15
  WS02006234WS02006232        2.30      2.30      2.36      0.01         0.01
  WS02006235WS02006234        2.30      2.30      2.31      5.18         1.01
  WS02006238WS02006235        2.32      2.32      2.33      0.01         0.31
  WS02006239WS02006238        2.32      2.32      2.32      1.66         0.82
  WS02006240WS02006239        2.29      2.30      2.30      1.65         0.80
  WS02006242WS02006240        2.29      2.29      2.32      1.91         0.85
  WS02006243WS02006242        2.27      2.27      2.31      0.01         0.01
  WS02006245WS02006243        2.26      2.26      2.26      0.79         0.75
  WS02006247WS02006245        2.26      2.26      2.26      5.04         1.11
  WS02006248WS02006247        2.24      2.24      2.26      0.01         0.01
  WS02006249WS02006248        2.24      2.24      2.24      3.96         0.01
  WS02006251WS02006249        2.24      2.24      2.24      2.14         2.09
  WS02006252WS02006251        2.26      2.26      2.32      1.58         0.01
  WS02006253WS02006251        2.24      2.24      2.24      0.81         0.01
  WS02006256WS02006235        5.38      5.38      7.99      0.02         0.01
  WS02006280WS02006229        0.80      0.80      0.91      0.01         0.01
  WS02006284WS02006280        0.70      0.70      0.78      0.01         0.01
  WS02006287WS02006284        0.60      0.60      0.71      0.30         0.31
  YS02001580YS02001583        0.61      0.61      0.67      0.01         0.01
  YS02001583YS02001586        0.62      0.62      0.75      0.01         0.01
  YS02001586YS02001590        0.76      0.76      0.83      0.01         0.01
  YS02001590YS02001593        0.84      0.84      0.86      0.87         0.01
  YS02001593YS02001596        0.85      0.85      0.96      0.01         0.01
  YS02001596YS02001600        1.01      1.01      1.13      0.01         0.01
  YS02001600YS02001601        1.19      1.19      1.44      0.01         0.01
  YS02001601YS02001602        1.34      1.34      1.48      1.12         0.01
  YS02001602YS02001605        1.30      1.30      1.34      2.31         0.01
  YS02001605YS02001607        1.25      1.30      1.25      1.40         1.25
  YS02001607YS02001610        0.83      0.83      0.86      0.01         0.01
  YS02001610YS02001613        0.82      0.82      0.86      0.01         0.01
  YS02001613YS02001616        0.78      0.78      0.82      0.01         0.01
  YS02001616YS02001619        0.77      0.77      0.78      0.01         0.01
  YS02001619YS02001622        0.77      0.77      0.77      0.83         0.72
  YS02001622YS02001625        0.77      0.77      0.96      0.01         0.01
  YS02001625YS02001629        0.72      0.72      0.96      0.01         0.01
  YS02001629YS02163301        0.95      0.95      0.96      0.07         0.14
  YS02001633YS02163601        0.99      0.99      1.02      0.31         0.30
  YS02001641YS02001644        0.90      0.93      0.90      1.52         0.88
  YS02001644YS02001647        0.68      0.68      0.90      0.01         0.01
  YS02001647YS02001649        0.68      0.68      0.81      0.01         0.01
  YS02001649YS02001757        0.81      0.81      0.88      0.09         0.04
  YS02001652YS02001649        0.64      0.64      0.81      0.01         0.01
  YS02001655YS02001652        0.45      0.45      0.61      0.01         0.01
  YS02001658YS02001655        0.24      0.24      0.45      0.01         0.01
  YS02001661YS02001658        0.02      0.02      0.24      0.01         0.01
  YS02001664YS02001661        0.01      0.01      0.07      0.01         0.01
  YS02001745YS02001748        0.01      0.01      0.17      0.01         0.01
  YS02001748YS02001751        0.22      0.22      0.34      0.01         0.01
  YS02001751YS02001754        0.34      0.34      0.53      0.01         0.01
  YS02001754YS02001757        0.57      0.57      0.88      0.01         0.01
  YS02001757CaochengTiaoxuchi        0.88      0.88      1.85      0.33         0.33
  YS02001759YS02001757        0.79      0.79      0.88      0.01         0.01
  YS02001762YS02001759        0.75      0.75      0.79      0.01         0.02
  YS02001765YS02001762        0.70      0.70      0.75      0.01         0.01
  YS02001767YS02001765        0.67      0.67      0.70      0.01         0.02
  YS02001770YS02001767        0.67      0.67      0.67      0.54         0.43
  YS02001774YS02001770        0.64      0.64      0.74      0.01         0.01
  YS02001779YS02001774        0.52      0.52      0.74      0.01         0.01
  YS02001783YS02001784        0.52      0.55      0.52      0.71         0.52
  YS02001784YS02001785        0.41      0.52      0.41      0.96         0.41
  YS02001786YS02001788        0.01      0.41      0.01      0.82         0.01
  YS02001790YS02001791        0.01      0.01      0.01      0.51         0.01
  YS02001793JiankangQianchi        0.01      0.01      7.70      0.01         0.01
  YS02001882YS02001884        0.49      0.49      0.50      0.01         0.01
  YS02001884YS02001887        0.52      0.52      0.54      0.01         0.01
  YS02001887YS02001890        0.55      0.55      0.56      0.10         0.01
  YS02001890YS02001895        0.48      0.48      0.58      0.01         0.01
  YS02001895YS02001898        0.47      0.47      0.48      0.01         0.01
  YS02001898YS02001901        0.48      0.48      0.52      0.01         0.01
  YS02001901YS02001904        0.51      0.51      0.52      0.01         0.01
  YS02001904YS02001907        0.51      0.51      0.80      0.01         0.01
  YS02001907YS02006553        0.97      0.97      1.04      0.01         0.01
  YS02001910YS02001907        0.58      0.58      0.78      0.01         0.01
  YS02001915YS02001910        0.48      0.48      0.58      0.01         0.01
  YS02001918YS02001915        0.40      0.40      0.48      0.01         0.01
  YS02001920YS02001918        0.40      0.40      0.41      0.01         0.01
  YS02001923YS02001920        0.35      0.35      0.41      0.01         0.01
  YS02001926YS02001923        0.09      0.09      0.12      0.01         0.01
  YS02001929YS02001926        0.01      0.01      0.12      0.01         0.01
  YS02006553YS02006556        0.68      0.68      0.80      0.01         0.01
  YS02006556YS02006558        0.74      0.74      0.82      0.01         0.01
  YS02006558YS02006561        0.43      0.66      0.43      0.91         0.43
  YS02006561YS02001783        0.36      0.36      0.55      0.01         0.01
  YS02163301YS02001633        0.96      0.96      1.00      0.01         0.01
  YS02163601YS02164001        0.93      0.93      1.02      0.09         0.01
  YS02164001YS02001641        0.93      0.93      0.93      0.69         0.64
  YSB1154YSB6556              0.74      0.74      0.89      0.01         0.01
  YSB1171HS02004479           0.63      0.63      0.90      0.01         0.01
  YSB1174YSB1171              0.81      0.81      1.17      0.01         0.01
  YSB6556YSB1171              0.74      0.74      1.33      0.01         0.01
  
  
  ***************
  Pumping Summary
  ***************
  
  ---------------------------------------------------------------------------------------------------------
                                                  Min       Avg       Max     Total     Power    % Time Off
                        Percent   Number of      Flow      Flow      Flow    Volume     Usage    Pump Curve
  Pump                 Utilized   Start-Ups       LPS       LPS       LPS  10^6 ltr     Kw-hr    Low   High
  ---------------------------------------------------------------------------------------------------------
  CC-R1                   18.12           2      0.00    683.00    683.00     3.564     67.70    0.0    5.7
  CC-R2                   12.96           2      0.00    683.00    683.00     2.549     48.97    0.0    8.0
  CC-S1                   65.72          33      0.00    200.00    200.00     3.785     24.48    0.0    0.0
  CC-S2                   24.34           2      0.00    200.00    200.00     1.402      8.90    0.0    0.0
  JK-R1                    8.03          64      0.00   1000.00   1000.00     2.312     20.74    0.0    0.0
  JK-R2                    6.32           5      0.00   1000.00   1000.00     1.819     16.35    0.0    0.0
  JK-S                     1.23           3      0.00    300.00    300.00     0.106      1.47    0.0    0.0
  XR-1                    97.91           2      0.00     95.00     95.00     2.679      9.64    0.0    0.0
  XR-2                    93.95           2      0.00     95.00     95.00     2.570      8.80    0.0    0.0
  XR-3                     0.00           1      0.00     95.00     95.00     0.000      0.00    0.0    0.0
  XR-4                     0.00           1      0.00     95.00     95.00     0.000      0.00    0.0    0.0
  

  Analysis begun on:  Tue Nov 22 19:27:56 2022
  Analysis ended on:  Tue Nov 22 19:27:58 2022
  Total elapsed time: 00:00:02